2018-12-06 17:07:02,409  INFO Gbl:59 JVM: 1.8.0_181; Oracle Corporation; mixed mode; 64-bit
2018-12-06 17:07:02,410  INFO Gbl:63 OS: Windows 10; 10.0; amd64
2018-12-06 17:07:02,410  INFO Gbl:66 CPU cores: 4
2018-12-06 17:07:02,412  INFO Gbl:67 max. Memory: 910.5MB (954728448B)
2018-12-06 17:07:02,413  INFO Gbl:105 MATSim-Build: r2e52cf1f54a31596d20f378d536f9dd7a0a860bb (2018-08-25 22:17:05)
2018-12-06 17:07:02,415  INFO ControlerListenerManagerImpl:107 calling notifyStartup on org.matsim.counts.CountsControlerListener
2018-12-06 17:07:02,416  INFO ControlerListenerManagerImpl:107 calling notifyStartup on org.matsim.analysis.ModeStatsControlerListener
2018-12-06 17:07:02,422 DEBUG NetworkRoutingProvider:75 requesting network routing module with routingMode=car;	mode=car
2018-12-06 17:07:02,423  INFO NetworkImpl:167  node # 1
2018-12-06 17:07:02,423  INFO NetworkImpl:167  node # 4
2018-12-06 17:07:02,424  INFO NetworkImpl:167  node # 16
2018-12-06 17:07:02,424  INFO NetworkImpl:163  link # 1
2018-12-06 17:07:02,424  INFO NetworkImpl:163  link # 4
2018-12-06 17:07:02,425  INFO NetworkImpl:163  link # 16
2018-12-06 17:07:02,429  INFO ControlerListenerManagerImpl:107 calling notifyStartup on org.matsim.analysis.ScoreStatsControlerListener
2018-12-06 17:07:02,430  INFO ControlerListenerManagerImpl:110 all ControlerStartupListeners called.
2018-12-06 17:07:02,431  INFO ControlerUtils:58 config dump before iterations start
2018-12-06 17:07:02,434  INFO Config:561 setting context to [file:/C:/Users/Easton/Documents/matsim-0.10.1/examples/Akbas%20Village/]
2018-12-06 17:07:02,460  INFO ControlerUtils:62 

<?xml version="1.0" encoding="UTF-8"?>
<!DOCTYPE config SYSTEM "http://www.matsim.org/files/dtd/config_v2.dtd">
<config>
<!-- ====================================================================== -->
	<module name="JDEQSim" >
		<param name="carSize" value="7.5" />
		<param name="endTime" value="undefined" />
		<param name="flowCapacityFactor" value="1.0" />
		<param name="gapTravelSpeed" value="15.0" />
		<param name="minimumInFlowCapacity" value="1800.0" />
		<param name="squeezeTime" value="1800.0" />
		<param name="storageCapacityFactor" value="1.0" />
	</module>
<!-- ====================================================================== -->
	<module name="TimeAllocationMutator" >
		<!-- Default:true; Defines whether time mutation changes an activity's duration. -->
		<param name="mutationAffectsDuration" value="true" />
		<!-- Default:1800.0; Defines how many seconds a time mutation can maximally shift a time. -->
		<param name="mutationRange" value="1800.0" />
		<!-- false; Use individual settings for each subpopulation. If enabled but no settings are found, regular settings are uses as fallback. -->
		<param name="useIndividualSettingsForSubpopulations" value="false" />
	</module>
<!-- ====================================================================== -->
<!-- ====================================================================== -->
	<module name="changeMode" >
		<param name="ignoreCarAvailability" value="true" />
		<param name="modes" value="car,pt" />
	</module>
<!-- ====================================================================== -->
	<module name="controler" >
		<!-- Sets whether graphs showing some analyses should automatically be generated during the simulation. The generation of graphs usually takes a small amount of time that does not have any weight in big simulations, but add a significant overhead in smaller runs or in test cases where the graphical output is not even requested. -->
		<param name="createGraphs" value="true" />
		<!-- true if at the end of a run, plans, network, config etc should be dumped to a file -->
		<param name="dumpDataAtEnd" value="false" />
		<!-- Default=false. If enabled, the router takes travel times needed for turning moves into account. Cannot be used if the (Fast)AStarLandmarks routing or TravelTimeCalculator.separateModes is enabled. -->
		<param name="enableLinkToLinkRouting" value="false" />
		<!-- Default=xml; Specifies the file format for writing events. Currently supported: xml.
		Multiple values can be specified separated by commas (','). -->
		<param name="eventsFileFormat" value="xml" />
		<!-- Default=0;  -->
		<param name="firstIteration" value="0" />
		<!-- Default=1000;  -->
		<param name="lastIteration" value="1" />
		<!-- Defines which mobility simulation will be used. Currently supported: qsim JDEQSim 
		Depending on the chosen mobsim, you'll have to add additional config modules to configure the corresponding mobsim.
		For 'qsim', add a module 'qsim' to the config. -->
		<param name="mobsim" value="qsim" />
		<param name="outputDirectory" value="./output" />
		<!-- Possible values: failIfDirectoryExists, overwriteExistingFiles, deleteDirectoryIfExists -->
		<param name="overwriteFiles" value="failIfDirectoryExists" />
		<!-- The type of routing (least cost path) algorithm used, may have the values: Dijkstra, FastDijkstra, AStarLandmarks or FastAStarLandmarks -->
		<param name="routingAlgorithmType" value="Dijkstra" />
		<!-- An identifier for the current run which is used as prefix for output files and mentioned in output xml files etc. -->
		<param name="runId" value="null" />
		<!-- Comma-separated list of visualizer output file formats. `transims', `googleearth', and `otfvis'. -->
		<param name="snapshotFormat" value="" />
		<!-- iterationNumber % writeEventsInterval == 0 defines in which iterations events are written to a file. `0' disables events writing completely. -->
		<param name="writeEventsInterval" value="10" />
		<!-- iterationNumber % writePlansInterval == 0 defines (hopefully) in which iterations plans are written to a file. `0' disables plans writing completely.  Some plans in early iterations are always written -->
		<param name="writePlansInterval" value="10" />
		<!-- iterationNumber % writeSnapshotsInterval == 0 defines in which iterations snapshots are written to a file. `0' disables snapshots writing completely -->
		<param name="writeSnapshotsInterval" value="1" />
	</module>
<!-- ====================================================================== -->
	<module name="counts" >
		<!-- Transport modes that will be respected for the counts comparison. 'car' is default, which includes also bussed from the pt simulation module. Use this parameter in combination with 'filterModes' = true! -->
		<param name="analyzedModes" value="car" />
		<!-- Specifies over how many iterations the link volumes should be averaged that are used for the counts comparison. Use 1 or 0 to only use the link volumes of a single iteration. This values cannot be larger than the value specified for writeCountsInterval -->
		<param name="averageCountsOverIterations" value="5" />
		<!-- factor by which to re-scale the simulated values.  necessary when simulation runs with something different from 100%.  needs to be adapted manually -->
		<param name="countsScaleFactor" value="1.0" />
		<!-- distance to distanceFilterCenterNode to include counting stations. The unit of distance is the Euclidean distance implied by the coordinate system -->
		<param name="distanceFilter" value="null" />
		<!-- node id for center node of distance filter -->
		<param name="distanceFilterCenterNode" value="null" />
		<!-- If true, link counts from legs performed on modes not included in the 'analyzedModes' parameter are ignored. -->
		<param name="filterModes" value="false" />
		<!-- The Coordinates Reference System in which the coordinates are expressed in the input file. At import, the coordinates will be converted to the coordinate system defined in "global", and willbe converted back at export. If not specified, no conversion happens. -->
		<param name="inputCRS" value="null" />
		<!-- input file name to counts package -->
		<param name="inputCountsFile" value="null" />
		<!-- possible values: `html', `kml', `txt', `all' -->
		<param name="outputformat" value="txt" />
		<!-- Specifies how often the counts comparison should be calculated and written. -->
		<param name="writeCountsInterval" value="10" />
	</module>
<!-- ====================================================================== -->
	<module name="facilities" >
		<!-- If set to 'true', empty activity option will be created. -->
		<param name="addEmptyActivityOption" value="false" />
		<!-- Default is 'true'. In the case that a facility has no link assigned, the ActivityFacility can be assigned to the closest link. If there should be only one ActivityFacility per link and if no link-assignment should be done, set to 'false'.This will create a new ActivityFacility at the coordinate and the facility will not be assigned to a link. -->
		<param name="assigningLinksToFacilitiesIfMissing" value="true" />
		<!-- If set to 'true', opening time will be assigned to activity facilities from ActivityParams. Default is false. This will NOT override option 'addEmptyActivityOption'. -->
		<param name="assigningOpeningTime" value="false" />
		<!-- This defines how facilities should be created. Possible values: none fromFile setInScenario onePerActivityLocationInPlansFile  -->
		<param name="facilitiesSource" value="fromFile" />
		<!-- A prefix to be used in activityFacility id. -->
		<param name="idPrefix" value="" />
		<!-- The Coordinates Reference System in which the coordinates are expressed in the input file. At import, the coordinates will be converted to the coordinate system defined in "global", and willbe converted back at export. If not specified, no conversion happens. -->
		<param name="inputCRS" value="null" />
		<param name="inputFacilitiesFile" value="facilities.xml" />
		<param name="inputFacilityAttributesFile" value="null" />
		<!-- Sets whether all activities on a link should be collected within one ActivityFacility. Default is 'true'. If set to 'false', for each coordinate found in the population's activities a separate ActivityFacility will be created. -->
		<param name="oneFacilityPerLink" value="true" />
		<!-- If set to 'true' (which is the default), the link and coordinate attributes are replaced by null reference in the activities, as this information is now available via the facility. -->
		<param name="removingLinksAndCoordinates" value="true" />
	</module>
<!-- ====================================================================== -->
	<module name="global" >
		<param name="coordinateSystem" value="Atlantis" />
		<param name="insistingOnDeprecatedConfigVersion" value="true" />
		<!-- "global" number of threads.  This number is used, e.g., for replanning, but NOT in the mobsim.  This can typically be set to as many cores as you have available, or possibly even slightly more. -->
		<param name="numberOfThreads" value="2" />
		<param name="randomSeed" value="4711" />
	</module>
<!-- ====================================================================== -->
	<module name="households" >
		<param name="inputFile" value="null" />
		<param name="inputHouseholdAttributesFile" value="null" />
	</module>
<!-- ====================================================================== -->
	<module name="linkStats" >
		<!-- Specifies over how many iterations the link volumes should be averaged that are used for the link statistics. Use 1 or 0 to only use the link volumes of a single iteration. This values cannot be larger than the value specified for writeLinkStatsInterval -->
		<param name="averageLinkStatsOverIterations" value="5" />
		<!-- Specifies how often the link stats should be calculated and written. Use 0 to disable the generation of link stats. -->
		<param name="writeLinkStatsInterval" value="10" />
	</module>
<!-- ====================================================================== -->
	<module name="network" >
		<!-- The Coordinates Reference System in which the coordinates are expressed in the input file. At import, the coordinates will be converted to the coordinate system defined in "global", and willbe converted back at export. If not specified, no conversion happens. -->
		<param name="inputCRS" value="null" />
		<param name="inputChangeEventsFile" value="null" />
		<param name="inputNetworkFile" value="network.xml" />
		<param name="laneDefinitionsFile" value="null" />
		<param name="timeVariantNetwork" value="false" />
	</module>
<!-- ====================================================================== -->
	<module name="parallelEventHandling" >
		<!-- Estimated number of events during mobsim run. An optional optimization hint for the framework. -->
		<param name="estimatedNumberOfEvents" value="null" />
		<!-- Number of threads for parallel events handler. _null_ means the framework decides by itself. 0 is currently not possible. -->
		<param name="numberOfThreads" value="null" />
		<!-- If enabled, each event handler is assigned to its own thread. Note that enabling this feature disabled the numberOfThreads option! This feature is still experimental! -->
		<param name="oneThreadPerHandler" value="false" />
		<!-- If enabled, it is ensured that all events that are created during a time step of the mobility simulation are processed before the next time step is simulated. E.g. neccessary when within-day replanning is used. -->
		<param name="synchronizeOnSimSteps" value="true" />
	</module>
<!-- ====================================================================== -->
	<module name="planCalcScore" >
		<!-- logit model scale parameter. default: 1.  Has name and default value for historical reasons (see Bryan Raney's phd thesis). -->
		<param name="BrainExpBeta" value="2.0" />
		<param name="PathSizeLogitBeta" value="1.0" />
		<!-- fraction of iterations at which MSA score averaging is started. The matsim theory department suggests to use this together with switching off choice set innovation (where a similar switch exists), but it has not been tested yet. -->
		<param name="fractionOfIterationsToStartScoreMSA" value="null" />
		<!-- new_score = (1-learningRate)*old_score + learningRate * score_from_mobsim.  learning rates close to zero emulate score averaging, but slow down initial convergence -->
		<param name="learningRate" value="1.0" />
		<!-- There used to be a plateau between duration=0 and duration=zeroUtilityDuration. This caused durations to evolve to zero once they were below zeroUtilityDuration, causing problems.  Only use this switch if you need to be backwards compatible with some old results.  (changed nov'13) -->
		<param name="usingOldScoringBelowZeroUtilityDuration" value="false" />
		<!-- write a plans file in each iteration directory which contains what each agent actually did, and the score it received. -->
		<param name="writeExperiencedPlans" value="false" />
		<parameterset type="scoringParameters" >
			<param name="earlyDeparture" value="-0.0" />
			<param name="lateArrival" value="-18.0" />
			<param name="marginalUtilityOfMoney" value="1.0" />
			<param name="performing" value="6.0" />
			<param name="subpopulation" value="null" />
			<param name="utilityOfLineSwitch" value="-1.0" />
			<param name="waiting" value="-0.0" />
			<param name="waitingPt" value="-6.0" />
			<parameterset type="activityParams" >
				<param name="activityType" value="dummy" />
				<param name="closingTime" value="undefined" />
				<param name="earliestEndTime" value="undefined" />
				<param name="latestStartTime" value="undefined" />
				<param name="minimalDuration" value="undefined" />
				<param name="openingTime" value="undefined" />
				<param name="priority" value="1.0" />
				<param name="scoringThisActivityAtAll" value="true" />
				<!-- typical duration of activity.  needs to be defined and non-zero.  in sec. -->
				<param name="typicalDuration" value="02:00:00" />
				<!-- method to compute score at typical duration.  Options: | uniform | relative | Use uniform for backwards compatibility (all activities same score; higher proba to drop long acts). -->
				<param name="typicalDurationScoreComputation" value="relative" />
			</parameterset>
			<parameterset type="activityParams" >
				<param name="activityType" value="car interaction" />
				<param name="closingTime" value="undefined" />
				<param name="earliestEndTime" value="undefined" />
				<param name="latestStartTime" value="undefined" />
				<param name="minimalDuration" value="undefined" />
				<param name="openingTime" value="undefined" />
				<param name="priority" value="1.0" />
				<param name="scoringThisActivityAtAll" value="false" />
				<!-- typical duration of activity.  needs to be defined and non-zero.  in sec. -->
				<param name="typicalDuration" value="undefined" />
				<!-- method to compute score at typical duration.  Options: | uniform | relative | Use uniform for backwards compatibility (all activities same score; higher proba to drop long acts). -->
				<param name="typicalDurationScoreComputation" value="relative" />
			</parameterset>
			<parameterset type="activityParams" >
				<param name="activityType" value="pt interaction" />
				<param name="closingTime" value="undefined" />
				<param name="earliestEndTime" value="undefined" />
				<param name="latestStartTime" value="undefined" />
				<param name="minimalDuration" value="undefined" />
				<param name="openingTime" value="undefined" />
				<param name="priority" value="1.0" />
				<param name="scoringThisActivityAtAll" value="false" />
				<!-- typical duration of activity.  needs to be defined and non-zero.  in sec. -->
				<param name="typicalDuration" value="undefined" />
				<!-- method to compute score at typical duration.  Options: | uniform | relative | Use uniform for backwards compatibility (all activities same score; higher proba to drop long acts). -->
				<param name="typicalDurationScoreComputation" value="relative" />
			</parameterset>
			<parameterset type="activityParams" >
				<param name="activityType" value="bike interaction" />
				<param name="closingTime" value="undefined" />
				<param name="earliestEndTime" value="undefined" />
				<param name="latestStartTime" value="undefined" />
				<param name="minimalDuration" value="undefined" />
				<param name="openingTime" value="undefined" />
				<param name="priority" value="1.0" />
				<param name="scoringThisActivityAtAll" value="false" />
				<!-- typical duration of activity.  needs to be defined and non-zero.  in sec. -->
				<param name="typicalDuration" value="undefined" />
				<!-- method to compute score at typical duration.  Options: | uniform | relative | Use uniform for backwards compatibility (all activities same score; higher proba to drop long acts). -->
				<param name="typicalDurationScoreComputation" value="relative" />
			</parameterset>
			<parameterset type="activityParams" >
				<param name="activityType" value="other interaction" />
				<param name="closingTime" value="undefined" />
				<param name="earliestEndTime" value="undefined" />
				<param name="latestStartTime" value="undefined" />
				<param name="minimalDuration" value="undefined" />
				<param name="openingTime" value="undefined" />
				<param name="priority" value="1.0" />
				<param name="scoringThisActivityAtAll" value="false" />
				<!-- typical duration of activity.  needs to be defined and non-zero.  in sec. -->
				<param name="typicalDuration" value="undefined" />
				<!-- method to compute score at typical duration.  Options: | uniform | relative | Use uniform for backwards compatibility (all activities same score; higher proba to drop long acts). -->
				<param name="typicalDurationScoreComputation" value="relative" />
			</parameterset>
			<parameterset type="activityParams" >
				<param name="activityType" value="walk interaction" />
				<param name="closingTime" value="undefined" />
				<param name="earliestEndTime" value="undefined" />
				<param name="latestStartTime" value="undefined" />
				<param name="minimalDuration" value="undefined" />
				<param name="openingTime" value="undefined" />
				<param name="priority" value="1.0" />
				<param name="scoringThisActivityAtAll" value="false" />
				<!-- typical duration of activity.  needs to be defined and non-zero.  in sec. -->
				<param name="typicalDuration" value="undefined" />
				<!-- method to compute score at typical duration.  Options: | uniform | relative | Use uniform for backwards compatibility (all activities same score; higher proba to drop long acts). -->
				<param name="typicalDurationScoreComputation" value="relative" />
			</parameterset>
			<parameterset type="activityParams" >
				<param name="activityType" value="home" />
				<param name="closingTime" value="undefined" />
				<param name="earliestEndTime" value="undefined" />
				<param name="latestStartTime" value="undefined" />
				<param name="minimalDuration" value="00:00:00" />
				<param name="openingTime" value="undefined" />
				<param name="priority" value="1.0" />
				<param name="scoringThisActivityAtAll" value="true" />
				<!-- typical duration of activity.  needs to be defined and non-zero.  in sec. -->
				<param name="typicalDuration" value="08:00:00" />
				<!-- method to compute score at typical duration.  Options: | uniform | relative | Use uniform for backwards compatibility (all activities same score; higher proba to drop long acts). -->
				<param name="typicalDurationScoreComputation" value="relative" />
			</parameterset>
			<parameterset type="activityParams" >
				<param name="activityType" value="work" />
				<param name="closingTime" value="undefined" />
				<param name="earliestEndTime" value="undefined" />
				<param name="latestStartTime" value="undefined" />
				<param name="minimalDuration" value="00:00:00" />
				<param name="openingTime" value="undefined" />
				<param name="priority" value="1.0" />
				<param name="scoringThisActivityAtAll" value="true" />
				<!-- typical duration of activity.  needs to be defined and non-zero.  in sec. -->
				<param name="typicalDuration" value="04:00:00" />
				<!-- method to compute score at typical duration.  Options: | uniform | relative | Use uniform for backwards compatibility (all activities same score; higher proba to drop long acts). -->
				<param name="typicalDurationScoreComputation" value="relative" />
			</parameterset>
			<parameterset type="activityParams" >
				<param name="activityType" value="edu" />
				<param name="closingTime" value="undefined" />
				<param name="earliestEndTime" value="undefined" />
				<param name="latestStartTime" value="undefined" />
				<param name="minimalDuration" value="00:00:00" />
				<param name="openingTime" value="undefined" />
				<param name="priority" value="1.0" />
				<param name="scoringThisActivityAtAll" value="true" />
				<!-- typical duration of activity.  needs to be defined and non-zero.  in sec. -->
				<param name="typicalDuration" value="03:00:00" />
				<!-- method to compute score at typical duration.  Options: | uniform | relative | Use uniform for backwards compatibility (all activities same score; higher proba to drop long acts). -->
				<param name="typicalDurationScoreComputation" value="relative" />
			</parameterset>
			<parameterset type="activityParams" >
				<param name="activityType" value="shop" />
				<param name="closingTime" value="undefined" />
				<param name="earliestEndTime" value="undefined" />
				<param name="latestStartTime" value="undefined" />
				<param name="minimalDuration" value="00:00:00" />
				<param name="openingTime" value="undefined" />
				<param name="priority" value="1.0" />
				<param name="scoringThisActivityAtAll" value="true" />
				<!-- typical duration of activity.  needs to be defined and non-zero.  in sec. -->
				<param name="typicalDuration" value="01:00:00" />
				<!-- method to compute score at typical duration.  Options: | uniform | relative | Use uniform for backwards compatibility (all activities same score; higher proba to drop long acts). -->
				<param name="typicalDurationScoreComputation" value="relative" />
			</parameterset>
			<parameterset type="modeParams" >
				<!-- [utils] alternative-specific constant.  no guarantee that this is used anywhere. default=0 to be backwards compatible for the time being -->
				<param name="constant" value="0.0" />
				<!-- [utils/m] utility of walking per m, normally negative.  this is on top of the time (dis)utility. -->
				<param name="marginalUtilityOfDistance_util_m" value="0.0" />
				<!-- [utils/hr] additional marginal utility of traveling.  normally negative.  this comes on top of the opportunity cost of time -->
				<param name="marginalUtilityOfTraveling_util_hr" value="-6.0" />
				<param name="mode" value="car" />
				<!-- [unit_of_money/m] conversion of distance into money. Normally negative. -->
				<param name="monetaryDistanceRate" value="0.0" />
			</parameterset>
			<parameterset type="modeParams" >
				<!-- [utils] alternative-specific constant.  no guarantee that this is used anywhere. default=0 to be backwards compatible for the time being -->
				<param name="constant" value="0.0" />
				<!-- [utils/m] utility of walking per m, normally negative.  this is on top of the time (dis)utility. -->
				<param name="marginalUtilityOfDistance_util_m" value="0.0" />
				<!-- [utils/hr] additional marginal utility of traveling.  normally negative.  this comes on top of the opportunity cost of time -->
				<param name="marginalUtilityOfTraveling_util_hr" value="-6.0" />
				<param name="mode" value="pt" />
				<!-- [unit_of_money/m] conversion of distance into money. Normally negative. -->
				<param name="monetaryDistanceRate" value="0.0" />
			</parameterset>
			<parameterset type="modeParams" >
				<!-- [utils] alternative-specific constant.  no guarantee that this is used anywhere. default=0 to be backwards compatible for the time being -->
				<param name="constant" value="0.0" />
				<!-- [utils/m] utility of walking per m, normally negative.  this is on top of the time (dis)utility. -->
				<param name="marginalUtilityOfDistance_util_m" value="0.0" />
				<!-- [utils/hr] additional marginal utility of traveling.  normally negative.  this comes on top of the opportunity cost of time -->
				<param name="marginalUtilityOfTraveling_util_hr" value="-6.0" />
				<param name="mode" value="walk" />
				<!-- [unit_of_money/m] conversion of distance into money. Normally negative. -->
				<param name="monetaryDistanceRate" value="0.0" />
			</parameterset>
			<parameterset type="modeParams" >
				<!-- [utils] alternative-specific constant.  no guarantee that this is used anywhere. default=0 to be backwards compatible for the time being -->
				<param name="constant" value="0.0" />
				<!-- [utils/m] utility of walking per m, normally negative.  this is on top of the time (dis)utility. -->
				<param name="marginalUtilityOfDistance_util_m" value="0.0" />
				<!-- [utils/hr] additional marginal utility of traveling.  normally negative.  this comes on top of the opportunity cost of time -->
				<param name="marginalUtilityOfTraveling_util_hr" value="-6.0" />
				<param name="mode" value="bike" />
				<!-- [unit_of_money/m] conversion of distance into money. Normally negative. -->
				<param name="monetaryDistanceRate" value="0.0" />
			</parameterset>
			<parameterset type="modeParams" >
				<!-- [utils] alternative-specific constant.  no guarantee that this is used anywhere. default=0 to be backwards compatible for the time being -->
				<param name="constant" value="0.0" />
				<!-- [utils/m] utility of walking per m, normally negative.  this is on top of the time (dis)utility. -->
				<param name="marginalUtilityOfDistance_util_m" value="0.0" />
				<!-- [utils/hr] additional marginal utility of traveling.  normally negative.  this comes on top of the opportunity cost of time -->
				<param name="marginalUtilityOfTraveling_util_hr" value="-6.0" />
				<param name="mode" value="ride" />
				<!-- [unit_of_money/m] conversion of distance into money. Normally negative. -->
				<param name="monetaryDistanceRate" value="0.0" />
			</parameterset>
			<parameterset type="modeParams" >
				<!-- [utils] alternative-specific constant.  no guarantee that this is used anywhere. default=0 to be backwards compatible for the time being -->
				<param name="constant" value="0.0" />
				<!-- [utils/m] utility of walking per m, normally negative.  this is on top of the time (dis)utility. -->
				<param name="marginalUtilityOfDistance_util_m" value="0.0" />
				<!-- [utils/hr] additional marginal utility of traveling.  normally negative.  this comes on top of the opportunity cost of time -->
				<param name="marginalUtilityOfTraveling_util_hr" value="-6.0" />
				<param name="mode" value="other" />
				<!-- [unit_of_money/m] conversion of distance into money. Normally negative. -->
				<param name="monetaryDistanceRate" value="0.0" />
			</parameterset>
		</parameterset>
	</module>
<!-- ====================================================================== -->
	<module name="plans" >
		<!-- String: minOfDurationAndEndTime tryEndTimeThenDuration endTimeOnly. Anything besides minOfDurationAndEndTime will internally use a different (simpler) version of the TimeAllocationMutator. -->
		<param name="activityDurationInterpretation" value="tryEndTimeThenDuration" />
		<!-- The Coordinates Reference System in which the coordinates are expressed in the input file. At import, the coordinates will be converted to the coordinate system defined in "global", and willbe converted back at export. If not specified, no conversion happens. -->
		<param name="inputCRS" value="null" />
		<!-- Path to a file containing person attributes (required file format: ObjectAttributes). -->
		<param name="inputPersonAttributesFile" value="null" />
		<param name="inputPlansFile" value="standardPlans.xml" />
		<!-- Defines how routes are stored in memory. Currently supported: LinkNetworkRoute, CompressedNetworkRoute. -->
		<param name="networkRouteType" value="LinkNetworkRoute" />
		<!-- (not tested) will remove plan attributes that are presumably not used, such as activityStartTime. default=false -->
		<param name="removingUnnecessaryPlanAttributes" value="false" />
		<!-- Name of the (Object)Attribute defining the subpopulation to which pertains a Person (as freight, through traffic, etc.). The attribute must be of String type.  Change away from default only in desperate situations. -->
		<param name="subpopulationAttributeName" value="subpopulation" />
	</module>
<!-- ====================================================================== -->
	<module name="planscalcroute" >
		<!-- All the modes for which the router is supposed to generate network routes (like car) -->
		<param name="networkModes" value="car" />
		<parameterset type="teleportedModeParameters" >
			<param name="beelineDistanceFactor" value="1.3" />
			<param name="mode" value="bike" />
			<!-- Free-speed factor for a teleported mode. Travel time = teleportedModeFreespeedFactor * <freespeed car travel time>. Insert a line like this for every such mode. Please do not set teleportedModeFreespeedFactor as well as teleportedModeSpeed for the same mode, but if you do, +teleportedModeFreespeedFactor wins over teleportedModeSpeed. -->
			<param name="teleportedModeFreespeedFactor" value="null" />
			<!-- Speed for a teleported mode. Travel time = (<beeline distance> * beelineDistanceFactor) / teleportedModeSpeed. Insert a line like this for every such mode. -->
			<param name="teleportedModeSpeed" value="4.166666666666667" />
		</parameterset>
		<parameterset type="teleportedModeParameters" >
			<param name="beelineDistanceFactor" value="1.3" />
			<param name="mode" value="walk" />
			<!-- Free-speed factor for a teleported mode. Travel time = teleportedModeFreespeedFactor * <freespeed car travel time>. Insert a line like this for every such mode. Please do not set teleportedModeFreespeedFactor as well as teleportedModeSpeed for the same mode, but if you do, +teleportedModeFreespeedFactor wins over teleportedModeSpeed. -->
			<param name="teleportedModeFreespeedFactor" value="null" />
			<!-- Speed for a teleported mode. Travel time = (<beeline distance> * beelineDistanceFactor) / teleportedModeSpeed. Insert a line like this for every such mode. -->
			<param name="teleportedModeSpeed" value="0.8333333333333333" />
		</parameterset>
		<parameterset type="teleportedModeParameters" >
			<param name="beelineDistanceFactor" value="1.3" />
			<param name="mode" value="access_walk" />
			<!-- Free-speed factor for a teleported mode. Travel time = teleportedModeFreespeedFactor * <freespeed car travel time>. Insert a line like this for every such mode. Please do not set teleportedModeFreespeedFactor as well as teleportedModeSpeed for the same mode, but if you do, +teleportedModeFreespeedFactor wins over teleportedModeSpeed. -->
			<param name="teleportedModeFreespeedFactor" value="null" />
			<!-- Speed for a teleported mode. Travel time = (<beeline distance> * beelineDistanceFactor) / teleportedModeSpeed. Insert a line like this for every such mode. -->
			<param name="teleportedModeSpeed" value="0.8333333333333333" />
		</parameterset>
		<parameterset type="teleportedModeParameters" >
			<param name="beelineDistanceFactor" value="1.3" />
			<param name="mode" value="egress_walk" />
			<!-- Free-speed factor for a teleported mode. Travel time = teleportedModeFreespeedFactor * <freespeed car travel time>. Insert a line like this for every such mode. Please do not set teleportedModeFreespeedFactor as well as teleportedModeSpeed for the same mode, but if you do, +teleportedModeFreespeedFactor wins over teleportedModeSpeed. -->
			<param name="teleportedModeFreespeedFactor" value="null" />
			<!-- Speed for a teleported mode. Travel time = (<beeline distance> * beelineDistanceFactor) / teleportedModeSpeed. Insert a line like this for every such mode. -->
			<param name="teleportedModeSpeed" value="0.8333333333333333" />
		</parameterset>
		<parameterset type="teleportedModeParameters" >
			<param name="beelineDistanceFactor" value="1.3" />
			<param name="mode" value="undefined" />
			<!-- Free-speed factor for a teleported mode. Travel time = teleportedModeFreespeedFactor * <freespeed car travel time>. Insert a line like this for every such mode. Please do not set teleportedModeFreespeedFactor as well as teleportedModeSpeed for the same mode, but if you do, +teleportedModeFreespeedFactor wins over teleportedModeSpeed. -->
			<param name="teleportedModeFreespeedFactor" value="null" />
			<!-- Speed for a teleported mode. Travel time = (<beeline distance> * beelineDistanceFactor) / teleportedModeSpeed. Insert a line like this for every such mode. -->
			<param name="teleportedModeSpeed" value="13.88888888888889" />
		</parameterset>
		<parameterset type="teleportedModeParameters" >
			<param name="beelineDistanceFactor" value="1.3" />
			<param name="mode" value="ride" />
			<!-- Free-speed factor for a teleported mode. Travel time = teleportedModeFreespeedFactor * <freespeed car travel time>. Insert a line like this for every such mode. Please do not set teleportedModeFreespeedFactor as well as teleportedModeSpeed for the same mode, but if you do, +teleportedModeFreespeedFactor wins over teleportedModeSpeed. -->
			<param name="teleportedModeFreespeedFactor" value="1.0" />
			<!-- Speed for a teleported mode. Travel time = (<beeline distance> * beelineDistanceFactor) / teleportedModeSpeed. Insert a line like this for every such mode. -->
			<param name="teleportedModeSpeed" value="null" />
		</parameterset>
		<parameterset type="teleportedModeParameters" >
			<param name="beelineDistanceFactor" value="1.3" />
			<param name="mode" value="pt" />
			<!-- Free-speed factor for a teleported mode. Travel time = teleportedModeFreespeedFactor * <freespeed car travel time>. Insert a line like this for every such mode. Please do not set teleportedModeFreespeedFactor as well as teleportedModeSpeed for the same mode, but if you do, +teleportedModeFreespeedFactor wins over teleportedModeSpeed. -->
			<param name="teleportedModeFreespeedFactor" value="2.0" />
			<!-- Speed for a teleported mode. Travel time = (<beeline distance> * beelineDistanceFactor) / teleportedModeSpeed. Insert a line like this for every such mode. -->
			<param name="teleportedModeSpeed" value="null" />
		</parameterset>
	</module>
<!-- ====================================================================== -->
	<module name="ptCounts" >
		<!-- factor by which to re-scale the simulated values.  necessary when simulation runs with something different from 100%.  needs to be adapted manually -->
		<param name="countsScaleFactor" value="1.0" />
		<!-- distance to distanceFilterCenterNode to include counting stations. The unit of distance is the Euclidean distance implied by the coordinate system -->
		<param name="distanceFilter" value="null" />
		<!-- node id for center node of distance filter -->
		<param name="distanceFilterCenterNode" value="null" />
		<!-- input file containing the alighting (getting off) counts for pt -->
		<param name="inputAlightCountsFile" value="null" />
		<!-- input file containing the boarding (getting on) counts for pt -->
		<param name="inputBoardCountsFile" value="null" />
		<!-- input file containing the occupancy counts for pt -->
		<param name="inputOccupancyCountsFile" value="null" />
		<!-- possible values: `html', `kml', `txt', `all' -->
		<param name="outputformat" value="null" />
		<!-- every how many iterations (starting with 0) counts comparisons are generated -->
		<param name="ptCountsInterval" value="10" />
	</module>
<!-- ====================================================================== -->
	<module name="qsim" >
		<!-- If set to true, creates a vehicle for each person corresponding to every network mode. However, this will be overridden if vehicle source is fromVehiclesData. -->
		<param name="creatingVehiclesForAllNetworkModes" value="true" />
		<param name="endTime" value="00:00:00" />
		<param name="flowCapacityFactor" value="1.0" />
		<!-- decides if waiting vehicles enter the network after or before the already driving vehicles were moved. Default: false -->
		<param name="insertingWaitingVehiclesBeforeDrivingVehicles" value="false" />
		<!-- If link dynamics is set as SeepageQ, set to false if all seep modes should perform seepage. Default is true (better option). -->
		<param name="isRestrictingSeepage" value="true" />
		<!-- If link dynamics is set as SeepageQ, set to true if seep mode do not consumes any space on the link. Default is false. -->
		<param name="isSeepModeStorageFree" value="false" />
		<!-- default: FIFO; options: FIFO PassingQ SeepageQ -->
		<param name="linkDynamics" value="FIFO" />
		<!-- The (initial) width of the links of the network. Use positive floating point values. This is used only for visualisation. -->
		<param name="linkWidth" value="30.0" />
		<!-- [comma-separated list] Defines which modes are congested modes. Technically, these are the modes that the departure handler of the netsimengine handles.  Effective cell size, effective lane width, flow capacity factor, and storage capacity factor need to be set with diligence.  Need to be vehicular modes to make sense. -->
		<param name="mainMode" value="car" />
		<!-- Shortens a link in the visualization, i.e. its start and end point are moved into towards the center. Does not affect traffic flow.  -->
		<param name="nodeOffset" value="0.0" />
		<!-- Number of threads used for the QSim.  Note that this setting is independent from the "global" threads setting.  In contrast to earlier versions, the non-parallel special version is no longer there. -->
		<param name="numberOfThreads" value="1" />
		<!-- Boolean. `true': stuck vehicles are removed, aborting the plan; `false': stuck vehicles are forced into the next link. `false' is probably the better choice. -->
		<param name="removeStuckVehicles" value="false" />
		<!-- If link dynamics is set as SeepageQ, set a seep mode. Default is bike. -->
		<param name="seepMode" value="bike" />
		<!-- Possible values: minOfEndtimeAndMobsimFinished, onlyUseEndtime -->
		<param name="simEndtimeInterpretation" value="null" />
		<!-- Options: maxOfStarttimeAndEarliestActivityEnd onlyUseStarttime  -->
		<param name="simStarttimeInterpretation" value="maxOfStarttimeAndEarliestActivityEnd" />
		<!-- snapshotStyle. One of: equiDist queue withHoles withHolesAndShowHoles kinematicWaves  -->
		<param name="snapshotStyle" value="equiDist" />
		<param name="snapshotperiod" value="00:00:00" />
		<param name="startTime" value="00:00:00" />
		<param name="storageCapacityFactor" value="1.0" />
		<!-- time in seconds.  Time after which the frontmost vehicle on a link is called `stuck' if it does not move. -->
		<param name="stuckTime" value="10.0" />
		<param name="timeStepSize" value="00:00:01" />
		<!-- options: queue withHoles kinematicWaves  -->
		<param name="trafficDynamics" value="queue" />
		<!-- Set this parameter to true if lanes should be used, false if not. -->
		<param name="useLanes" value="false" />
		<!-- If a route does not reference a vehicle, agents will use the vehicle with the same id as their own. -->
		<param name="usePersonIdForMissingVehicleId" value="true" />
		<!-- If false, the qsim accumulates fractional flows up to one flow unit in every time step.  If true, flows are updated only if an agent wants to enter the link or an agent is added to buffer. Default is true. -->
		<param name="usingFastCapacityUpdate" value="true" />
		<!-- if the qsim should use as many runners as there are threads (Christoph's dissertation version) or more of them, together with a thread pool (seems to be faster in some situations, but is not tested). -->
		<param name="usingThreadpool" value="true" />
		<!-- Defines what happens if an agent wants to depart, but the specified vehicle is not available. One of: teleport wait exception  -->
		<param name="vehicleBehavior" value="teleport" />
		<!-- If vehicles should all be the same default vehicle, or come from the vehicles file, or something else.  Possible values:  defaultVehicle modeVehicleTypesFromVehiclesData fromVehiclesData -->
		<param name="vehiclesSource" value="defaultVehicle" />
	</module>
<!-- ====================================================================== -->
	<module name="scenario" >
	</module>
<!-- ====================================================================== -->
	<module name="strategy" >
		<!-- the external executable will be called with a config file as argument.  This is the pathname to a possible skeleton config, to which additional information will be added.  Can be null. -->
		<param name="ExternalExeConfigTemplate" value="null" />
		<!-- time out value (in seconds) after which matsim will consider the external strategy as failed -->
		<param name="ExternalExeTimeOut" value="3600" />
		<!-- root directory for temporary files generated by the external executable. Provided as a service; I don't think this is used by MATSim. -->
		<param name="ExternalExeTmpFileRootDir" value="null" />
		<!-- fraction of iterations where innovative strategies are switched off.  Something link 0.8 should be good.  E.g. if you run from iteration 400 to iteration 500, innovation is switched off at iteration 480 -->
		<param name="fractionOfIterationsToDisableInnovation" value="Infinity" />
		<!-- maximum number of plans per agent.  ``0'' means ``infinity''.  Currently (2010), ``5'' is a good number -->
		<param name="maxAgentPlanMemorySize" value="5" />
		<!-- strategyName of PlanSelector for plans removal.  Possible defaults: WorstPlanSelector SelectRandom SelectExpBetaForRemoval ChangeExpBetaForRemoval PathSizeLogitSelectorForRemoval . The current default, WorstPlanSelector is not a good choice from a discrete choice theoretical perspective. Alternatives, however, have not been systematically tested. kai, feb'12 -->
		<param name="planSelectorForRemoval" value="WorstPlanSelector" />
		<parameterset type="strategysettings" >
			<!-- iteration after which strategy will be disabled.  most useful for ``innovative'' strategies (new routes, new times, ...). Normally, better use fractionOfIterationsToDisableInnovation -->
			<param name="disableAfterIteration" value="-1" />
			<!-- path to external executable (if applicable) -->
			<param name="executionPath" value="null" />
			<!-- strategyName of strategy.  Possible default names: SelectRandomBestScoreKeepLastSelectedChangeExpBetaSelectExpBetaSelectPathSizeLogit (selectors), ReRoute TimeAllocationMutator ChangeLegMode TimeAllocationMutator_ReRoute ChangeSingleLegMode ChangeSingleTripMode SubtourModeChoice ChangeTripMode TripSubtourModeChoice  (innovative strategies). -->
			<param name="strategyName" value="BestScore" />
			<!-- subpopulation to which the strategy applies. "null" refers to the default population, that is, the set of persons for which no explicit subpopulation is defined (ie no subpopulation attribute) -->
			<param name="subpopulation" value="null" />
			<!-- weight of a strategy: for each agent, a strategy will be selected with a probability proportional to its weight -->
			<param name="weight" value="0.9" />
		</parameterset>
		<parameterset type="strategysettings" >
			<!-- iteration after which strategy will be disabled.  most useful for ``innovative'' strategies (new routes, new times, ...). Normally, better use fractionOfIterationsToDisableInnovation -->
			<param name="disableAfterIteration" value="-1" />
			<!-- path to external executable (if applicable) -->
			<param name="executionPath" value="null" />
			<!-- strategyName of strategy.  Possible default names: SelectRandomBestScoreKeepLastSelectedChangeExpBetaSelectExpBetaSelectPathSizeLogit (selectors), ReRoute TimeAllocationMutator ChangeLegMode TimeAllocationMutator_ReRoute ChangeSingleLegMode ChangeSingleTripMode SubtourModeChoice ChangeTripMode TripSubtourModeChoice  (innovative strategies). -->
			<param name="strategyName" value="ReRoute" />
			<!-- subpopulation to which the strategy applies. "null" refers to the default population, that is, the set of persons for which no explicit subpopulation is defined (ie no subpopulation attribute) -->
			<param name="subpopulation" value="null" />
			<!-- weight of a strategy: for each agent, a strategy will be selected with a probability proportional to its weight -->
			<param name="weight" value="0.1" />
		</parameterset>
	</module>
<!-- ====================================================================== -->
	<module name="subtourModeChoice" >
		<!-- Defines the chain-based modes, seperated by commas -->
		<param name="chainBasedModes" value="car,bike" />
		<!-- Defines whether car availability must be considered or not. A agent has no car only if it has no license, or never access to a car -->
		<param name="considerCarAvailability" value="false" />
		<!-- Defines all the modes available, including chain-based modes, seperated by commas -->
		<param name="modes" value="car,pt,bike,walk" />
	</module>
<!-- ====================================================================== -->
	<module name="transit" >
		<!-- The Coordinates Reference System in which the coordinates are expressed in the input file. At import, the coordinates will be converted to the coordinate system defined in "global", and willbe converted back at export. If not specified, no conversion happens. -->
		<param name="inputScheduleCRS" value="null" />
		<!-- Optional input file containing additional attributes for transit lines, stored as ObjectAttributes. -->
		<param name="transitLinesAttributesFile" value="null" />
		<!-- Comma-separated list of transportation modes that are handled as transit. Defaults to 'pt'. -->
		<param name="transitModes" value="pt" />
		<!-- Input file containing the transit schedule to be simulated. -->
		<param name="transitScheduleFile" value="null" />
		<!-- Optional input file containing additional attributes for transit stop facilities, stored as ObjectAttributes. -->
		<param name="transitStopsAttributesFile" value="null" />
		<!-- Set this parameter to true if transit should be simulated, false if not. -->
		<param name="useTransit" value="false" />
		<!-- Input file containing the vehicles used by the departures in the transit schedule. -->
		<param name="vehiclesFile" value="null" />
	</module>
<!-- ====================================================================== -->
	<module name="transitRouter" >
		<!-- additional time the router allocates when a line switch happens. Can be interpreted as a 'safety' time that agents need to safely transfer from one line to another -->
		<param name="additionalTransferTime" value="0.0" />
		<!-- Factor with which direct walk generalized cost is multiplied before it is compared to the pt generalized cost.  Set to a very high value to reduce direct walk results. -->
		<param name="directWalkFactor" value="1.0" />
		<!-- step size to increase searchRadius if no stops are found -->
		<param name="extensionRadius" value="200.0" />
		<!-- maximum beeline distance between stops that agents could transfer to by walking -->
		<param name="maxBeelineWalkConnectionDistance" value="100.0" />
		<!-- the radius in which stop locations are searched, given a start or target coordinate -->
		<param name="searchRadius" value="1000.0" />
	</module>
<!-- ====================================================================== -->
	<module name="travelTimeCalculator" >
		<!-- Transport modes that will be respected by the travel time collector. 'car' is default, which includes also busses from the pt simulation module. Use this parameter in combination with 'filterModes' = true! -->
		<param name="analyzedModes" value="car" />
		<param name="calculateLinkToLinkTravelTimes" value="false" />
		<param name="calculateLinkTravelTimes" value="true" />
		<!-- If true, link travel times from legs performed on modes not included in the 'analyzedModes' parameter are ignored. -->
		<param name="filterModes" value="false" />
		<!-- The lenght (in sec) of the time period that is splited into time bins; an additional time bin is created to aggregate all travel times collected after maxTime -->
		<param name="maxTime" value="108000" />
		<!-- If true, link travel times are measured and calculated separately for each mode in analyzedModes. Other modes are ignored. If true, filterModes has no effect. -->
		<param name="separateModes" value="false" />
		<!-- How to deal with congested time bins that have no link entry events. `optimistic' assumes free speed (too optimistic); 'experimental_LastMile' is experimental and probably too pessimistic. -->
		<param name="travelTimeAggregator" value="optimistic" />
		<!-- The size of the time bin (in sec) into which the link travel times are aggregated for the router -->
		<param name="travelTimeBinSize" value="900" />
		<!-- possible values: TravelTimeCalculatorArray TravelTimeCalculatorHashMap  -->
		<param name="travelTimeCalculator" value="TravelTimeCalculatorArray" />
		<!-- How to deal with link entry times at different positions during the time bin. Currently supported: average, linearinterpolation -->
		<param name="travelTimeGetter" value="average" />
	</module>
<!-- ====================================================================== -->
	<module name="vehicles" >
		<param name="vehiclesFile" value="null" />
	</module>
<!-- ====================================================================== -->
	<module name="vspExperimental" >
		<!-- (do not use except of you have to) There was a problem with pt interaction scoring.  Some people solved it by overwriting the parameters of the pt interaction activity type.  Doing this now throws an Exception.  If you still insist on doing this, set the following to true. -->
		<param name="isAbleToOverwritePtInteractionParams" value="false" />
		<param name="isGeneratingBoardingDeniedEvent" value="false" />
		<!-- if an approximation of the opportunity cost of time is included into the radius calculation for location choice.`true' will be faster, but it is an approximation.  Default is `true'; `false' is available for backwards compatibility. -->
		<param name="isUsingOpportunityCostOfTimeForLocationChoice" value="true" />
		<param name="logitScaleParamForPlansRemoval" value="1.0" />
		<!-- Options: | ignore | info | warn | abort | .  When violating VSP defaults, this results in nothing, logfile infos, logfile warnings, or aborts.  Members of VSP should use `abort' or talk to kai. -->
		<param name="vspDefaultsCheckingLevel" value="ignore" />
		<!-- if true then writes output_events in output directory.  default is `false'. Will only work when lastIteration is multiple of events writing interval -->
		<param name="writingOutputEvents" value="true" />
	</module>
<!-- ====================================================================== -->

</config>

2018-12-06 17:07:02,490  INFO ControlerUtils:63 Complete config dump done.
2018-12-06 17:07:02,491  INFO ControlerUtils:64 Checking consistency of config...
2018-12-06 17:07:02,492  INFO PlanCalcScoreConfigGroup$ScoringParameterSet:1372 NO OPENING OR CLOSING TIMES DEFINED!

There is no activity type that has an opening *and* closing time (or opening time and late penalty) defined.
This usually means that the activity chains can be shifted by an arbitrary
number of hours without having an effect on the score of the plans, and thus
resulting in wrong results / traffic patterns.
If you are using MATSim without time adaptation, you can ignore this warning.


2018-12-06 17:07:02,493  INFO VspConfigConsistencyCheckerImpl:58 NOT running vsp config consistency check because vsp defaults checking level is set to IGNORE
2018-12-06 17:07:02,493  INFO ControlerUtils:66 Checking consistency of config done.
2018-12-06 17:07:02,497 DEBUG NetworkRoutingProvider:75 requesting network routing module with routingMode=car;	mode=car
2018-12-06 17:07:02,498 DEBUG NetworkRoutingProvider:75 requesting network routing module with routingMode=car;	mode=car
2018-12-06 17:07:02,500  INFO NetworkImpl:426 building QuadTree for nodes: xrange(999.0,7001.0); yrange(999.0,3001.0)
2018-12-06 17:07:02,504  INFO NetworkImpl:435 Building QuadTree took 0.004 seconds.
2018-12-06 17:07:02,513  INFO Counter:61 [PersonPrepareForSim] handled person # 1
2018-12-06 17:07:02,513  INFO Counter:67 [PersonPrepareForSim] handled person # 1
2018-12-06 17:07:02,514  INFO Counter:61  vehicles # 1
2018-12-06 17:07:02,514  INFO AbstractController:126 ###################################################
2018-12-06 17:07:02,514  INFO AbstractController:127 ### ITERATION 0 BEGINS
2018-12-06 17:07:02,516  INFO ControlerListenerManagerImpl:145 calling notifyIterationStarts on org.matsim.analysis.LegHistogramListener
2018-12-06 17:07:02,516  INFO ControlerListenerManagerImpl:145 calling notifyIterationStarts on org.matsim.analysis.LinkStatsControlerListener
2018-12-06 17:07:02,516  INFO ControlerListenerManagerImpl:145 calling notifyIterationStarts on org.matsim.core.replanning.ReplanningContextImpl
2018-12-06 17:07:02,516  INFO ControlerListenerManagerImpl:145 calling notifyIterationStarts on org.matsim.core.scoring.ExperiencedPlansServiceImpl$1
2018-12-06 17:07:02,516  INFO ControlerListenerManagerImpl:145 calling notifyIterationStarts on org.matsim.core.scoring.ScoringFunctionsForPopulation$1
2018-12-06 17:07:02,525  INFO ControlerListenerManagerImpl:148 [it.0] all ControlerIterationStartsListeners called.
2018-12-06 17:07:02,526  INFO ControlerListenerManagerImpl:224 calling notifyBeforeMobsim on org.matsim.core.controler.corelisteners.EventsHandlingImpl
2018-12-06 17:07:02,526  INFO EventsManagerImpl:170 resetting Event-Handlers
2018-12-06 17:07:02,526  INFO EventsManagerImpl:177   org.matsim.core.trafficmonitoring.TravelTimeCalculator
2018-12-06 17:07:02,527  INFO EventsManagerImpl:177   org.matsim.core.scoring.EventsToLegs
2018-12-06 17:07:02,527  INFO EventsManagerImpl:177   org.matsim.analysis.VolumesAnalyzer
2018-12-06 17:07:02,527  INFO EventsManagerImpl:177   org.matsim.core.scoring.EventsToActivities
2018-12-06 17:07:02,527  INFO EventsManagerImpl:177   org.matsim.analysis.CalcLegTimes
2018-12-06 17:07:02,527  INFO EventsManagerImpl:177   org.matsim.analysis.LegHistogram
2018-12-06 17:07:02,528  INFO EventsManagerImpl:177   org.matsim.core.scoring.ScoringFunctionsForPopulation
2018-12-06 17:07:02,530  INFO EventsManagerImpl:144 adding Event-Handler: org.matsim.core.events.algorithms.EventWriterXML
2018-12-06 17:07:02,530  INFO EventsManagerImpl:148   org.matsim.core.events.algorithms.EventWriter
2018-12-06 17:07:02,530  INFO EventsManagerImpl:148   org.matsim.core.events.handler.BasicEventHandler
2018-12-06 17:07:02,531  INFO EventsManagerImpl:207     > org.matsim.api.core.v01.events.Event
2018-12-06 17:07:02,531  INFO EventsManagerImpl:156 
2018-12-06 17:07:02,531  INFO EventsManagerImpl:144 adding Event-Handler: org.matsim.core.events.algorithms.EventWriterXML
2018-12-06 17:07:02,531  INFO EventsManagerImpl:148   org.matsim.core.events.algorithms.EventWriter
2018-12-06 17:07:02,531  INFO EventsManagerImpl:148   org.matsim.core.events.handler.BasicEventHandler
2018-12-06 17:07:02,531  INFO EventsManagerImpl:207     > org.matsim.api.core.v01.events.Event
2018-12-06 17:07:02,532  INFO EventsManagerImpl:156 
2018-12-06 17:07:02,532  INFO ControlerListenerManagerImpl:224 calling notifyBeforeMobsim on org.matsim.core.controler.corelisteners.PlansDumpingImpl
2018-12-06 17:07:02,532  INFO PlansDumpingImpl:75 dumping plans...
2018-12-06 17:07:02,536  INFO Counter:61 [PopulationWriter] dumped person # 1
2018-12-06 17:07:02,537  INFO PopulationWriter:139 Population written to: ./output/ITERS/it.0/0.plans.xml.gz
2018-12-06 17:07:02,538  INFO Counter:67 [PopulationWriter] dumped person # 1
2018-12-06 17:07:02,539  INFO PlansDumpingImpl:92 finished plans dump.
2018-12-06 17:07:02,539  INFO ControlerListenerManagerImpl:229 calling notifyBeforeMobsim on org.matsim.core.population.VspPlansCleaner
2018-12-06 17:07:02,539  INFO ControlerListenerManagerImpl:232 [it.0] all ControlerBeforeMobsimListeners called.
2018-12-06 17:07:02,594  INFO MobsimListenerManager:49 calling addQueueSimulationListener
2018-12-06 17:07:02,595  INFO MobsimListenerManager:53   assigned class org.matsim.core.mobsim.framework.listeners.MobsimListener to interface org.matsim.core.mobsim.framework.listeners.MobsimBeforeCleanupListener
2018-12-06 17:07:02,596  INFO MobsimListenerManager:53   assigned class org.matsim.core.mobsim.framework.listeners.MobsimListener to interface org.matsim.vis.snapshotwriters.SnapshotWriterManager
2018-12-06 17:07:02,596  INFO MobsimListenerManager:53   assigned class org.matsim.core.mobsim.framework.listeners.MobsimListener to interface org.matsim.core.mobsim.framework.listeners.MobsimListener
2018-12-06 17:07:02,596  INFO MobsimListenerManager:53   assigned class org.matsim.core.mobsim.framework.listeners.MobsimListener to interface org.matsim.core.mobsim.framework.listeners.MobsimAfterSimStepListener
2018-12-06 17:07:02,597  INFO MobsimListenerManager:53   assigned class org.matsim.core.mobsim.framework.listeners.MobsimListener to interface org.matsim.core.mobsim.framework.listeners.MobsimInitializedListener
2018-12-06 17:07:02,621  INFO Injector:80 === printInjector start ===
2018-12-06 17:07:02,621  INFO Injector:84 org.matsim.core.mobsim.qsim.qnetsimengine.VehicularDepartureHandler 
2018-12-06 17:07:02,622  INFO Injector:85   --> provider: Key[type=org.matsim.core.mobsim.qsim.qnetsimengine.QNetsimEngineDepartureHandlerProvider, annotation=[none]][Scopes.SINGLETON]
2018-12-06 17:07:02,622  INFO Injector:86   --> source: org.matsim.core.mobsim.qsim.qnetsimengine.QNetsimEnginePlugin$1.configure(QNetsimEnginePlugin.java:25)
2018-12-06 17:07:02,623  INFO Injector:88   --> scope: eager singleton
2018-12-06 17:07:02,623  INFO Injector:92 
2018-12-06 17:07:02,624  INFO Injector:84 org.matsim.core.mobsim.qsim.agents.AgentFactory 
2018-12-06 17:07:02,624  INFO Injector:85   --> provider: FactoryProxy{key=Key[type=org.matsim.core.mobsim.qsim.agents.AgentFactory, annotation=[none]], provider=com.google.inject.internal.ConstructorBindingImpl$Factory@34f22f9d}[Scopes.SINGLETON]
2018-12-06 17:07:02,625  INFO Injector:86   --> source: org.matsim.core.mobsim.qsim.PopulationPlugin$1.configure(PopulationPlugin.java:30)
2018-12-06 17:07:02,625  INFO Injector:88   --> scope: eager singleton
2018-12-06 17:07:02,625  INFO Injector:92 
2018-12-06 17:07:02,626  INFO Injector:84 org.matsim.core.mobsim.qsim.interfaces.Netsim 
2018-12-06 17:07:02,626  INFO Injector:85   --> provider: FactoryProxy{key=Key[type=org.matsim.core.mobsim.qsim.interfaces.Netsim, annotation=[none]], provider=com.google.inject.internal.ConstructorBindingImpl$Factory@1b7c473a[Scopes.SINGLETON]}
2018-12-06 17:07:02,626  INFO Injector:86   --> source: org.matsim.core.mobsim.qsim.QSimProvider$1.configure(QSimProvider.java:65)
2018-12-06 17:07:02,627  INFO Injector:88   --> scope: Scopes.NO_SCOPE
2018-12-06 17:07:02,627  INFO Injector:92 
2018-12-06 17:07:02,627  INFO Injector:84 org.matsim.core.mobsim.jdeqsim.MessageQueue 
2018-12-06 17:07:02,628  INFO Injector:85   --> provider: com.google.inject.internal.ConstructorBindingImpl$Factory@53fd0d10[Scopes.SINGLETON]
2018-12-06 17:07:02,628  INFO Injector:86   --> source: org.matsim.core.mobsim.qsim.messagequeueengine.MessageQueuePlugin$1.configure(MessageQueuePlugin.java:24)
2018-12-06 17:07:02,628  INFO Injector:88   --> scope: eager singleton
2018-12-06 17:07:02,628  INFO Injector:92 
2018-12-06 17:07:02,629  INFO Injector:84 org.matsim.core.mobsim.qsim.jdeqsimengine.SteppableScheduler 
2018-12-06 17:07:02,629  INFO Injector:85   --> provider: com.google.inject.internal.ConstructorBindingImpl$Factory@5dcb4f5f[Scopes.SINGLETON]
2018-12-06 17:07:02,629  INFO Injector:86   --> source: org.matsim.core.mobsim.qsim.messagequeueengine.MessageQueuePlugin$1.configure(MessageQueuePlugin.java:25)
2018-12-06 17:07:02,629  INFO Injector:88   --> scope: eager singleton
2018-12-06 17:07:02,629  INFO Injector:92 
2018-12-06 17:07:02,630  INFO Injector:84 org.matsim.core.mobsim.qsim.messagequeueengine.MessageQueueEngine 
2018-12-06 17:07:02,630  INFO Injector:85   --> provider: com.google.inject.internal.ConstructorBindingImpl$Factory@6155d082[Scopes.SINGLETON]
2018-12-06 17:07:02,630  INFO Injector:86   --> source: org.matsim.core.mobsim.qsim.messagequeueengine.MessageQueuePlugin$1.configure(MessageQueuePlugin.java:26)
2018-12-06 17:07:02,631  INFO Injector:88   --> scope: eager singleton
2018-12-06 17:07:02,631  INFO Injector:92 
2018-12-06 17:07:02,631  INFO Injector:84 org.matsim.core.mobsim.qsim.ActivityEngine 
2018-12-06 17:07:02,632  INFO Injector:85   --> provider: com.google.inject.internal.ConstructorBindingImpl$Factory@388526fb[Scopes.SINGLETON]
2018-12-06 17:07:02,632  INFO Injector:86   --> source: org.matsim.core.mobsim.qsim.ActivityEnginePlugin$1.configure(ActivityEnginePlugin.java:23)
2018-12-06 17:07:02,632  INFO Injector:88   --> scope: eager singleton
2018-12-06 17:07:02,632  INFO Injector:92 
2018-12-06 17:07:02,633  INFO Injector:84 org.matsim.core.mobsim.qsim.qnetsimengine.QNetsimEngine 
2018-12-06 17:07:02,633  INFO Injector:85   --> provider: com.google.inject.internal.ConstructorBindingImpl$Factory@6436a7db[Scopes.SINGLETON]
2018-12-06 17:07:02,633  INFO Injector:86   --> source: org.matsim.core.mobsim.qsim.qnetsimengine.QNetsimEnginePlugin$1.configure(QNetsimEnginePlugin.java:24)
2018-12-06 17:07:02,633  INFO Injector:88   --> scope: eager singleton
2018-12-06 17:07:02,633  INFO Injector:92 
2018-12-06 17:07:02,634  INFO Injector:84 org.matsim.core.mobsim.qsim.DefaultTeleportationEngine 
2018-12-06 17:07:02,634  INFO Injector:85   --> provider: com.google.inject.internal.ConstructorBindingImpl$Factory@1afdd473[Scopes.SINGLETON]
2018-12-06 17:07:02,634  INFO Injector:86   --> source: org.matsim.core.mobsim.qsim.TeleportationPlugin$1.configure(TeleportationPlugin.java:21)
2018-12-06 17:07:02,634  INFO Injector:88   --> scope: eager singleton
2018-12-06 17:07:02,635  INFO Injector:92 
2018-12-06 17:07:02,635  INFO Injector:84 org.matsim.core.mobsim.qsim.agents.PopulationAgentSource 
2018-12-06 17:07:02,635  INFO Injector:85   --> provider: com.google.inject.internal.ConstructorBindingImpl$Factory@6a55299e[Scopes.SINGLETON]
2018-12-06 17:07:02,635  INFO Injector:86   --> source: org.matsim.core.mobsim.qsim.PopulationPlugin$1.configure(PopulationPlugin.java:26)
2018-12-06 17:07:02,636  INFO Injector:88   --> scope: eager singleton
2018-12-06 17:07:02,636  INFO Injector:92 
2018-12-06 17:07:02,636  INFO Injector:84 org.matsim.core.mobsim.qsim.QSim 
2018-12-06 17:07:02,636  INFO Injector:85   --> provider: com.google.inject.internal.ConstructorBindingImpl$Factory@1b7c473a[Scopes.SINGLETON]
2018-12-06 17:07:02,637  INFO Injector:86   --> source: org.matsim.core.mobsim.qsim.QSimProvider$1.configure(QSimProvider.java:64)
2018-12-06 17:07:02,637  INFO Injector:88   --> scope: eager singleton
2018-12-06 17:07:02,637  INFO Injector:92 
2018-12-06 17:07:02,638  INFO Injector:95 === printInjector end ===
2018-12-06 17:07:02,639  INFO MobsimListenerManager:49 calling addQueueSimulationListener
2018-12-06 17:07:02,639  INFO MobsimListenerManager:53   assigned class org.matsim.core.mobsim.framework.listeners.MobsimListener to interface org.matsim.core.mobsim.qsim.messagequeueengine.MessageQueueEngine
2018-12-06 17:07:02,640  INFO MobsimListenerManager:53   assigned class org.matsim.core.mobsim.framework.listeners.MobsimListener to interface org.matsim.core.mobsim.framework.listeners.MobsimListener
2018-12-06 17:07:02,640  INFO MobsimListenerManager:53   assigned class org.matsim.core.mobsim.framework.listeners.MobsimListener to interface org.matsim.core.mobsim.framework.listeners.MobsimBeforeSimStepListener
2018-12-06 17:07:02,664  INFO QNetsimEngine:504 Assigned 17 nodes and 48 links to QSimEngineRunner #0
2018-12-06 17:07:02,669  INFO EventsManagerImpl:134  event # 1
2018-12-06 17:07:02,674  INFO EventsManagerImpl:134  event # 4
2018-12-06 17:07:02,675  INFO QNetsimEngine:347 SIMULATION (QNetsimEngine) AT 07:00:00 : #links=0 #nodes=1
2018-12-06 17:07:02,676  INFO QSim:506 SIMULATION (NEW QSim) AT 07:00:00 : #Veh=1 lost=0 simT=0.0s realT=0s; (s/r): 0.0
2018-12-06 17:07:02,676  INFO Gbl:54 used RAM: 32346368B = 31588kB = 30MB  free: 96628480B = 92MB  total: 128974848B = 123MB
2018-12-06 17:07:02,725  INFO EventsManagerImpl:134  event # 16
2018-12-06 17:07:02,892  INFO QNetsimEngine:347 SIMULATION (QNetsimEngine) AT 08:00:00 : #links=0 #nodes=0
2018-12-06 17:07:02,893  INFO QSim:506 SIMULATION (NEW QSim) AT 08:00:00 : #Veh=1 lost=0 simT=3600.0s realT=0s; (s/r): Infinity
2018-12-06 17:07:02,893  INFO Gbl:54 used RAM: 35724688B = 34887kB = 34MB  free: 93250160B = 88MB  total: 128974848B = 123MB
2018-12-06 17:07:03,033  INFO QNetsimEngine:347 SIMULATION (QNetsimEngine) AT 09:00:00 : #links=0 #nodes=0
2018-12-06 17:07:03,034  INFO QSim:506 SIMULATION (NEW QSim) AT 09:00:00 : #Veh=1 lost=0 simT=7200.0s realT=0s; (s/r): Infinity
2018-12-06 17:07:03,034  INFO Gbl:54 used RAM: 38762168B = 37853kB = 36MB  free: 90212680B = 86MB  total: 128974848B = 123MB
2018-12-06 17:07:03,172  INFO QNetsimEngine:347 SIMULATION (QNetsimEngine) AT 10:00:00 : #links=0 #nodes=0
2018-12-06 17:07:03,173  INFO QSim:506 SIMULATION (NEW QSim) AT 10:00:00 : #Veh=1 lost=0 simT=10800.0s realT=0s; (s/r): Infinity
2018-12-06 17:07:03,173  INFO Gbl:54 used RAM: 9507184B = 9284kB = 9MB  free: 153546384B = 146MB  total: 163053568B = 155MB
2018-12-06 17:07:03,295  INFO QNetsimEngine:347 SIMULATION (QNetsimEngine) AT 11:00:00 : #links=0 #nodes=0
2018-12-06 17:07:03,295  INFO QSim:506 SIMULATION (NEW QSim) AT 11:00:00 : #Veh=1 lost=0 simT=14400.0s realT=0s; (s/r): Infinity
2018-12-06 17:07:03,295  INFO Gbl:54 used RAM: 12466464B = 12174kB = 11MB  free: 150587104B = 143MB  total: 163053568B = 155MB
2018-12-06 17:07:03,411  INFO QNetsimEngine:347 SIMULATION (QNetsimEngine) AT 12:00:00 : #links=0 #nodes=0
2018-12-06 17:07:03,422  INFO QSim:506 SIMULATION (NEW QSim) AT 12:00:00 : #Veh=1 lost=0 simT=18000.0s realT=0s; (s/r): Infinity
2018-12-06 17:07:03,423  INFO Gbl:54 used RAM: 14119824B = 13788kB = 13MB  free: 148933744B = 142MB  total: 163053568B = 155MB
2018-12-06 17:07:03,548  INFO QNetsimEngine:347 SIMULATION (QNetsimEngine) AT 13:00:00 : #links=0 #nodes=1
2018-12-06 17:07:03,549  INFO QSim:506 SIMULATION (NEW QSim) AT 13:00:00 : #Veh=1 lost=0 simT=21600.0s realT=0s; (s/r): Infinity
2018-12-06 17:07:03,549  INFO Gbl:54 used RAM: 16134456B = 15756kB = 15MB  free: 146919112B = 140MB  total: 163053568B = 155MB
2018-12-06 17:07:03,710  INFO QNetsimEngine:347 SIMULATION (QNetsimEngine) AT 14:00:00 : #links=0 #nodes=0
2018-12-06 17:07:03,711  INFO QSim:506 SIMULATION (NEW QSim) AT 14:00:00 : #Veh=1 lost=0 simT=25200.0s realT=1s; (s/r): 25200.0
2018-12-06 17:07:03,712  INFO Gbl:54 used RAM: 17981968B = 17560kB = 17MB  free: 145071600B = 138MB  total: 163053568B = 155MB
2018-12-06 17:07:03,841  INFO QNetsimEngine:347 SIMULATION (QNetsimEngine) AT 15:00:00 : #links=0 #nodes=0
2018-12-06 17:07:03,842  INFO QSim:506 SIMULATION (NEW QSim) AT 15:00:00 : #Veh=1 lost=0 simT=28800.0s realT=1s; (s/r): 28800.0
2018-12-06 17:07:03,842  INFO Gbl:54 used RAM: 19996592B = 19527kB = 19MB  free: 143056976B = 136MB  total: 163053568B = 155MB
2018-12-06 17:07:03,959  INFO QNetsimEngine:347 SIMULATION (QNetsimEngine) AT 16:00:00 : #links=0 #nodes=0
2018-12-06 17:07:03,960  INFO QSim:506 SIMULATION (NEW QSim) AT 16:00:00 : #Veh=1 lost=0 simT=32400.0s realT=1s; (s/r): 32400.0
2018-12-06 17:07:03,960  INFO Gbl:54 used RAM: 22372488B = 21848kB = 21MB  free: 140681080B = 134MB  total: 163053568B = 155MB
2018-12-06 17:07:04,074  INFO QNetsimEngine:347 SIMULATION (QNetsimEngine) AT 17:00:00 : #links=0 #nodes=0
2018-12-06 17:07:04,075  INFO QSim:506 SIMULATION (NEW QSim) AT 17:00:00 : #Veh=1 lost=0 simT=36000.0s realT=1s; (s/r): 36000.0
2018-12-06 17:07:04,075  INFO Gbl:54 used RAM: 25336328B = 24742kB = 24MB  free: 137717240B = 131MB  total: 163053568B = 155MB
2018-12-06 17:07:04,190  INFO QNetsimEngine:347 SIMULATION (QNetsimEngine) AT 18:00:00 : #links=0 #nodes=0
2018-12-06 17:07:04,191  INFO QSim:506 SIMULATION (NEW QSim) AT 18:00:00 : #Veh=1 lost=0 simT=39600.0s realT=1s; (s/r): 39600.0
2018-12-06 17:07:04,191  INFO Gbl:54 used RAM: 27350960B = 26709kB = 26MB  free: 135702608B = 129MB  total: 163053568B = 155MB
2018-12-06 17:07:04,308  INFO QNetsimEngine:347 SIMULATION (QNetsimEngine) AT 19:00:00 : #links=0 #nodes=1
2018-12-06 17:07:04,308  INFO QSim:506 SIMULATION (NEW QSim) AT 19:00:00 : #Veh=1 lost=0 simT=43200.0s realT=1s; (s/r): 43200.0
2018-12-06 17:07:04,309  INFO Gbl:54 used RAM: 29726840B = 29030kB = 28MB  free: 133326728B = 127MB  total: 163053568B = 155MB
2018-12-06 17:07:04,424  INFO QNetsimEngine:347 SIMULATION (QNetsimEngine) AT 20:00:00 : #links=0 #nodes=1
2018-12-06 17:07:04,424  INFO QSim:506 SIMULATION (NEW QSim) AT 20:00:00 : #Veh=1 lost=0 simT=46800.0s realT=1s; (s/r): 46800.0
2018-12-06 17:07:04,425  INFO Gbl:54 used RAM: 31387024B = 30651kB = 29MB  free: 131666544B = 125MB  total: 163053568B = 155MB
2018-12-06 17:07:04,432  INFO EventsManagerImpl:134  event # 64
2018-12-06 17:07:04,434 ERROR BasicPlanAgentImpl:165 last activity of person driver agent id 1 has end time < infty; setting it to infty
2018-12-06 17:07:04,434 ERROR BasicPlanAgentImpl:166  This message given only once.
2018-12-06 17:07:04,436  INFO Gbl:187 Thread performance: Thread=class org.matsim.core.events.SimStepParallelEventsManagerImpl$ProcessEventsRunnable0  cpu-time=0.234375sec
2018-12-06 17:07:04,437  INFO AbstractController$8:215 ### ITERATION 0 fires after mobsim event
2018-12-06 17:07:04,437  INFO ControlerListenerManagerImpl:248 calling notifyAfterMobsim on org.matsim.analysis.LegTimesControlerListener
2018-12-06 17:07:04,440  INFO LegTimesControlerListener:50 [0] average trip (probably: leg) duration is: 175 seconds = 00:02:55
2018-12-06 17:07:04,440  INFO ControlerListenerManagerImpl:248 calling notifyAfterMobsim on org.matsim.core.scoring.EventsToActivities$1
2018-12-06 17:07:04,441  INFO ControlerListenerManagerImpl:251 [it.0] all ControlerAfterMobsimListeners called.
2018-12-06 17:07:04,442  INFO AbstractController$4:152 ### ITERATION 0 fires scoring event
2018-12-06 17:07:04,442  INFO ControlerListenerManagerImpl:183 calling notifyScoring on org.matsim.core.scoring.PlansScoringImpl
2018-12-06 17:07:04,443  INFO NewScoreAssignerImpl:36 it: 0 msaStart: null
2018-12-06 17:07:04,443  INFO ControlerListenerManagerImpl:194 [it.0] all ControlerScoringListeners called.
2018-12-06 17:07:04,443  INFO AbstractController$5:160 ### ITERATION 0 fires iteration end event
2018-12-06 17:07:04,444  INFO ControlerListenerManagerImpl:160 calling notifyIterationEnds on org.matsim.core.controler.corelisteners.EventsHandlingImpl
2018-12-06 17:07:04,446  INFO EventsManagerImpl:161 removing Event-Handler: org.matsim.core.events.algorithms.EventWriterXML
2018-12-06 17:07:04,446  INFO EventsManagerImpl:161 removing Event-Handler: org.matsim.core.events.algorithms.EventWriterXML
2018-12-06 17:07:04,446  INFO ControlerListenerManagerImpl:160 calling notifyIterationEnds on org.matsim.core.scoring.PlansScoringImpl
2018-12-06 17:07:04,447  INFO ControlerListenerManagerImpl:167 calling notifyIterationEnds on org.matsim.counts.CountsControlerListener
2018-12-06 17:07:04,447  INFO ControlerListenerManagerImpl:167 calling notifyIterationEnds on org.matsim.analysis.ModeStatsControlerListener
2018-12-06 17:07:04,447  INFO ModeStatsControlerListener:155 -- mode share of mode bike = 0.0
2018-12-06 17:07:04,447  INFO ModeStatsControlerListener:155 -- mode share of mode car = 1.0
2018-12-06 17:07:04,448  INFO ModeStatsControlerListener:155 -- mode share of mode other = 0.0
2018-12-06 17:07:04,448  INFO ModeStatsControlerListener:155 -- mode share of mode pt = 0.0
2018-12-06 17:07:04,448  INFO ModeStatsControlerListener:155 -- mode share of mode ride = 0.0
2018-12-06 17:07:04,448  INFO ModeStatsControlerListener:155 -- mode share of mode walk = 0.0
2018-12-06 17:07:04,448  INFO ControlerListenerManagerImpl:167 calling notifyIterationEnds on org.matsim.analysis.ScoreStatsControlerListener
2018-12-06 17:07:04,448  INFO ScoreStatsControlerListener:191 -- avg. score of the executed plan of each agent: 131.53538511005704
2018-12-06 17:07:04,448  INFO ScoreStatsControlerListener:192 -- avg. score of the worst plan of each agent: 131.53538511005704
2018-12-06 17:07:04,449  INFO ScoreStatsControlerListener:193 -- avg. of the avg. plan score per agent: 131.53538511005704
2018-12-06 17:07:04,449  INFO ScoreStatsControlerListener:194 -- avg. score of the best plan of each agent: 131.53538511005704
2018-12-06 17:07:04,449  INFO ControlerListenerManagerImpl:167 calling notifyIterationEnds on org.matsim.analysis.TravelDistanceStatsControlerListener
2018-12-06 17:07:04,449  INFO TravelDistanceStats:128 [TravelDistanceStats] using 2 thread(s).
2018-12-06 17:07:04,451  INFO TravelDistanceStats:141 [TravelDistanceStats] all threads finished.
2018-12-06 17:07:04,451  INFO TravelDistanceStats:161 -- average of the average leg distance per plan (executed plans only): 4500.0
2018-12-06 17:07:04,451  INFO TravelDistanceStats:162 (TravelDistanceStats takes an average over all legs where the simulation reports travelled distances. These are car legs, pt legs,
2018-12-06 17:07:04,451  INFO TravelDistanceStats:163 (and teleported legs whose route contains a distance.)
2018-12-06 17:07:04,452  INFO ControlerListenerManagerImpl:167 calling notifyIterationEnds on org.matsim.analysis.LegHistogramListener
2018-12-06 17:07:04,460  INFO LegHistogramListener:72 number of legs:	4	100%
2018-12-06 17:07:04,461  INFO LegHistogramListener:79 number of car legs:	4	100.0%
2018-12-06 17:07:05,436  INFO ControlerListenerManagerImpl:167 calling notifyIterationEnds on org.matsim.analysis.LinkStatsControlerListener
2018-12-06 17:07:05,437  INFO ControlerListenerManagerImpl:171 [it.0] all ControlerIterationEndsListeners called.
2018-12-06 17:07:05,675  INFO AbstractController:170 ### ITERATION 0 ENDS
2018-12-06 17:07:05,675  INFO AbstractController:171 ###################################################
2018-12-06 17:07:05,675  INFO AbstractController:126 ###################################################
2018-12-06 17:07:05,676  INFO AbstractController:127 ### ITERATION 1 BEGINS
2018-12-06 17:07:05,677  INFO ControlerListenerManagerImpl:145 calling notifyIterationStarts on org.matsim.analysis.LegHistogramListener
2018-12-06 17:07:05,677  INFO ControlerListenerManagerImpl:145 calling notifyIterationStarts on org.matsim.analysis.LinkStatsControlerListener
2018-12-06 17:07:05,677  INFO ControlerListenerManagerImpl:145 calling notifyIterationStarts on org.matsim.core.replanning.ReplanningContextImpl
2018-12-06 17:07:05,678  INFO ControlerListenerManagerImpl:145 calling notifyIterationStarts on org.matsim.core.scoring.ExperiencedPlansServiceImpl$1
2018-12-06 17:07:05,678  INFO ControlerListenerManagerImpl:145 calling notifyIterationStarts on org.matsim.core.scoring.ScoringFunctionsForPopulation$1
2018-12-06 17:07:05,678  INFO ControlerListenerManagerImpl:148 [it.1] all ControlerIterationStartsListeners called.
2018-12-06 17:07:05,679  INFO ControlerListenerManagerImpl:205 calling notifyReplanning on org.matsim.core.controler.corelisteners.PlansReplanningImpl
2018-12-06 17:07:05,680 DEBUG NetworkRoutingProvider:75 requesting network routing module with routingMode=car;	mode=car
2018-12-06 17:07:05,681 DEBUG NetworkRoutingProvider:75 requesting network routing module with routingMode=car;	mode=car
2018-12-06 17:07:05,683  INFO GenericPlanStrategyImpl:125 Plan-Strategy finished, 1 plans handled. Strategy: BestPlanSelector
2018-12-06 17:07:05,683  INFO AbstractMultithreadedModule:141 [PlanRouter] starting 2 threads, handling 0 plans
2018-12-06 17:07:05,685  INFO AbstractMultithreadedModule:156 [PlanRouter] all 2 threads finished.
2018-12-06 17:07:05,686  INFO GenericPlanStrategyImpl:125 Plan-Strategy finished, 0 plans handled. Strategy: RandomPlanSelector_ReRoute
2018-12-06 17:07:05,686  INFO ControlerListenerManagerImpl:213 [it.1] all ControlerReplanningListeners called.
2018-12-06 17:07:05,686  INFO ControlerListenerManagerImpl:224 calling notifyBeforeMobsim on org.matsim.core.controler.corelisteners.EventsHandlingImpl
2018-12-06 17:07:05,687  INFO EventsManagerImpl:170 resetting Event-Handlers
2018-12-06 17:07:05,687  INFO EventsManagerImpl:177   org.matsim.core.trafficmonitoring.TravelTimeCalculator
2018-12-06 17:07:05,688  INFO EventsManagerImpl:177   org.matsim.core.scoring.EventsToLegs
2018-12-06 17:07:05,688  INFO EventsManagerImpl:177   org.matsim.analysis.VolumesAnalyzer
2018-12-06 17:07:05,688  INFO EventsManagerImpl:177   org.matsim.core.scoring.EventsToActivities
2018-12-06 17:07:05,689  INFO EventsManagerImpl:177   org.matsim.analysis.CalcLegTimes
2018-12-06 17:07:05,689  INFO EventsManagerImpl:177   org.matsim.analysis.LegHistogram
2018-12-06 17:07:05,689  INFO EventsManagerImpl:177   org.matsim.core.scoring.ScoringFunctionsForPopulation
2018-12-06 17:07:05,689  INFO ControlerListenerManagerImpl:224 calling notifyBeforeMobsim on org.matsim.core.controler.corelisteners.PlansDumpingImpl
2018-12-06 17:07:05,689  INFO PlansDumpingImpl:75 dumping plans...
2018-12-06 17:07:05,691  INFO Counter:61 [PopulationWriter] dumped person # 1
2018-12-06 17:07:05,692  INFO PopulationWriter:139 Population written to: ./output/ITERS/it.1/1.plans.xml.gz
2018-12-06 17:07:05,694  INFO Counter:67 [PopulationWriter] dumped person # 1
2018-12-06 17:07:05,694  INFO PlansDumpingImpl:92 finished plans dump.
2018-12-06 17:07:05,695  INFO ControlerListenerManagerImpl:229 calling notifyBeforeMobsim on org.matsim.core.population.VspPlansCleaner
2018-12-06 17:07:05,695  INFO ControlerListenerManagerImpl:232 [it.1] all ControlerBeforeMobsimListeners called.
2018-12-06 17:07:05,707  INFO MobsimListenerManager:49 calling addQueueSimulationListener
2018-12-06 17:07:05,708  INFO MobsimListenerManager:53   assigned class org.matsim.core.mobsim.framework.listeners.MobsimListener to interface org.matsim.core.mobsim.framework.listeners.MobsimBeforeCleanupListener
2018-12-06 17:07:05,709  INFO MobsimListenerManager:53   assigned class org.matsim.core.mobsim.framework.listeners.MobsimListener to interface org.matsim.vis.snapshotwriters.SnapshotWriterManager
2018-12-06 17:07:05,709  INFO MobsimListenerManager:53   assigned class org.matsim.core.mobsim.framework.listeners.MobsimListener to interface org.matsim.core.mobsim.framework.listeners.MobsimListener
2018-12-06 17:07:05,710  INFO MobsimListenerManager:53   assigned class org.matsim.core.mobsim.framework.listeners.MobsimListener to interface org.matsim.core.mobsim.framework.listeners.MobsimAfterSimStepListener
2018-12-06 17:07:05,710  INFO MobsimListenerManager:53   assigned class org.matsim.core.mobsim.framework.listeners.MobsimListener to interface org.matsim.core.mobsim.framework.listeners.MobsimInitializedListener
2018-12-06 17:07:05,712  INFO Injector:80 === printInjector start ===
2018-12-06 17:07:05,713  INFO Injector:84 org.matsim.core.mobsim.qsim.qnetsimengine.VehicularDepartureHandler 
2018-12-06 17:07:05,713  INFO Injector:85   --> provider: Key[type=org.matsim.core.mobsim.qsim.qnetsimengine.QNetsimEngineDepartureHandlerProvider, annotation=[none]][Scopes.SINGLETON]
2018-12-06 17:07:05,713  INFO Injector:86   --> source: org.matsim.core.mobsim.qsim.qnetsimengine.QNetsimEnginePlugin$1.configure(QNetsimEnginePlugin.java:25)
2018-12-06 17:07:05,713  INFO Injector:88   --> scope: eager singleton
2018-12-06 17:07:05,714  INFO Injector:92 
2018-12-06 17:07:05,714  INFO Injector:84 org.matsim.core.mobsim.qsim.agents.AgentFactory 
2018-12-06 17:07:05,715  INFO Injector:85   --> provider: FactoryProxy{key=Key[type=org.matsim.core.mobsim.qsim.agents.AgentFactory, annotation=[none]], provider=com.google.inject.internal.ConstructorBindingImpl$Factory@3e34ace1}[Scopes.SINGLETON]
2018-12-06 17:07:05,715  INFO Injector:86   --> source: org.matsim.core.mobsim.qsim.PopulationPlugin$1.configure(PopulationPlugin.java:30)
2018-12-06 17:07:05,715  INFO Injector:88   --> scope: eager singleton
2018-12-06 17:07:05,716  INFO Injector:92 
2018-12-06 17:07:05,717  INFO Injector:84 org.matsim.core.mobsim.qsim.interfaces.Netsim 
2018-12-06 17:07:05,717  INFO Injector:85   --> provider: FactoryProxy{key=Key[type=org.matsim.core.mobsim.qsim.interfaces.Netsim, annotation=[none]], provider=com.google.inject.internal.ConstructorBindingImpl$Factory@305f7627[Scopes.SINGLETON]}
2018-12-06 17:07:05,718  INFO Injector:86   --> source: org.matsim.core.mobsim.qsim.QSimProvider$1.configure(QSimProvider.java:65)
2018-12-06 17:07:05,718  INFO Injector:88   --> scope: Scopes.NO_SCOPE
2018-12-06 17:07:05,718  INFO Injector:92 
2018-12-06 17:07:05,719  INFO Injector:84 org.matsim.core.mobsim.jdeqsim.MessageQueue 
2018-12-06 17:07:05,720  INFO Injector:85   --> provider: com.google.inject.internal.ConstructorBindingImpl$Factory@38be305c[Scopes.SINGLETON]
2018-12-06 17:07:05,720  INFO Injector:86   --> source: org.matsim.core.mobsim.qsim.messagequeueengine.MessageQueuePlugin$1.configure(MessageQueuePlugin.java:24)
2018-12-06 17:07:05,721  INFO Injector:88   --> scope: eager singleton
2018-12-06 17:07:05,721  INFO Injector:92 
2018-12-06 17:07:05,722  INFO Injector:84 org.matsim.core.mobsim.qsim.jdeqsimengine.SteppableScheduler 
2018-12-06 17:07:05,722  INFO Injector:85   --> provider: com.google.inject.internal.ConstructorBindingImpl$Factory@40e10ff8[Scopes.SINGLETON]
2018-12-06 17:07:05,723  INFO Injector:86   --> source: org.matsim.core.mobsim.qsim.messagequeueengine.MessageQueuePlugin$1.configure(MessageQueuePlugin.java:25)
2018-12-06 17:07:05,723  INFO Injector:88   --> scope: eager singleton
2018-12-06 17:07:05,724  INFO Injector:92 
2018-12-06 17:07:05,724  INFO Injector:84 org.matsim.core.mobsim.qsim.messagequeueengine.MessageQueueEngine 
2018-12-06 17:07:05,725  INFO Injector:85   --> provider: com.google.inject.internal.ConstructorBindingImpl$Factory@31e75d13[Scopes.SINGLETON]
2018-12-06 17:07:05,725  INFO Injector:86   --> source: org.matsim.core.mobsim.qsim.messagequeueengine.MessageQueuePlugin$1.configure(MessageQueuePlugin.java:26)
2018-12-06 17:07:05,725  INFO Injector:88   --> scope: eager singleton
2018-12-06 17:07:05,726  INFO Injector:92 
2018-12-06 17:07:05,726  INFO Injector:84 org.matsim.core.mobsim.qsim.ActivityEngine 
2018-12-06 17:07:05,727  INFO Injector:85   --> provider: com.google.inject.internal.ConstructorBindingImpl$Factory@b968a76[Scopes.SINGLETON]
2018-12-06 17:07:05,733  INFO Injector:86   --> source: org.matsim.core.mobsim.qsim.ActivityEnginePlugin$1.configure(ActivityEnginePlugin.java:23)
2018-12-06 17:07:05,734  INFO Injector:88   --> scope: eager singleton
2018-12-06 17:07:05,734  INFO Injector:92 
2018-12-06 17:07:05,734  INFO Injector:84 org.matsim.core.mobsim.qsim.qnetsimengine.QNetsimEngine 
2018-12-06 17:07:05,735  INFO Injector:85   --> provider: com.google.inject.internal.ConstructorBindingImpl$Factory@3f446bef[Scopes.SINGLETON]
2018-12-06 17:07:05,735  INFO Injector:86   --> source: org.matsim.core.mobsim.qsim.qnetsimengine.QNetsimEnginePlugin$1.configure(QNetsimEnginePlugin.java:24)
2018-12-06 17:07:05,735  INFO Injector:88   --> scope: eager singleton
2018-12-06 17:07:05,735  INFO Injector:92 
2018-12-06 17:07:05,736  INFO Injector:84 org.matsim.core.mobsim.qsim.DefaultTeleportationEngine 
2018-12-06 17:07:05,736  INFO Injector:85   --> provider: com.google.inject.internal.ConstructorBindingImpl$Factory@61bcd567[Scopes.SINGLETON]
2018-12-06 17:07:05,736  INFO Injector:86   --> source: org.matsim.core.mobsim.qsim.TeleportationPlugin$1.configure(TeleportationPlugin.java:21)
2018-12-06 17:07:05,737  INFO Injector:88   --> scope: eager singleton
2018-12-06 17:07:05,737  INFO Injector:92 
2018-12-06 17:07:05,737  INFO Injector:84 org.matsim.core.mobsim.qsim.agents.PopulationAgentSource 
2018-12-06 17:07:05,738  INFO Injector:85   --> provider: com.google.inject.internal.ConstructorBindingImpl$Factory@56276db8[Scopes.SINGLETON]
2018-12-06 17:07:05,738  INFO Injector:86   --> source: org.matsim.core.mobsim.qsim.PopulationPlugin$1.configure(PopulationPlugin.java:26)
2018-12-06 17:07:05,739  INFO Injector:88   --> scope: eager singleton
2018-12-06 17:07:05,739  INFO Injector:92 
2018-12-06 17:07:05,739  INFO Injector:84 org.matsim.core.mobsim.qsim.QSim 
2018-12-06 17:07:05,740  INFO Injector:85   --> provider: com.google.inject.internal.ConstructorBindingImpl$Factory@305f7627[Scopes.SINGLETON]
2018-12-06 17:07:05,740  INFO Injector:86   --> source: org.matsim.core.mobsim.qsim.QSimProvider$1.configure(QSimProvider.java:64)
2018-12-06 17:07:05,740  INFO Injector:88   --> scope: eager singleton
2018-12-06 17:07:05,741  INFO Injector:92 
2018-12-06 17:07:05,741  INFO Injector:95 === printInjector end ===
2018-12-06 17:07:05,742  INFO MobsimListenerManager:49 calling addQueueSimulationListener
2018-12-06 17:07:05,742  INFO MobsimListenerManager:53   assigned class org.matsim.core.mobsim.framework.listeners.MobsimListener to interface org.matsim.core.mobsim.qsim.messagequeueengine.MessageQueueEngine
2018-12-06 17:07:05,743  INFO MobsimListenerManager:53   assigned class org.matsim.core.mobsim.framework.listeners.MobsimListener to interface org.matsim.core.mobsim.framework.listeners.MobsimListener
2018-12-06 17:07:05,743  INFO MobsimListenerManager:53   assigned class org.matsim.core.mobsim.framework.listeners.MobsimListener to interface org.matsim.core.mobsim.framework.listeners.MobsimBeforeSimStepListener
2018-12-06 17:07:05,745  INFO QNetsimEngine:504 Assigned 17 nodes and 48 links to QSimEngineRunner #0
2018-12-06 17:07:05,749  INFO QNetsimEngine:347 SIMULATION (QNetsimEngine) AT 07:00:00 : #links=0 #nodes=1
2018-12-06 17:07:05,749  INFO QSim:506 SIMULATION (NEW QSim) AT 07:00:00 : #Veh=1 lost=0 simT=0.0s realT=0s; (s/r): 0.0
2018-12-06 17:07:05,749  INFO Gbl:54 used RAM: 51638576B = 50428kB = 49MB  free: 76811984B = 73MB  total: 128450560B = 122MB
2018-12-06 17:07:05,882  INFO QNetsimEngine:347 SIMULATION (QNetsimEngine) AT 08:00:00 : #links=0 #nodes=0
2018-12-06 17:07:05,883  INFO QSim:506 SIMULATION (NEW QSim) AT 08:00:00 : #Veh=1 lost=0 simT=3600.0s realT=0s; (s/r): Infinity
2018-12-06 17:07:05,883  INFO Gbl:54 used RAM: 54822064B = 53537kB = 52MB  free: 73628496B = 70MB  total: 128450560B = 122MB
2018-12-06 17:07:06,001  INFO QNetsimEngine:347 SIMULATION (QNetsimEngine) AT 09:00:00 : #links=0 #nodes=0
2018-12-06 17:07:06,001  INFO QSim:506 SIMULATION (NEW QSim) AT 09:00:00 : #Veh=1 lost=0 simT=7200.0s realT=0s; (s/r): Infinity
2018-12-06 17:07:06,001  INFO Gbl:54 used RAM: 58005552B = 56646kB = 55MB  free: 70445008B = 67MB  total: 128450560B = 122MB
2018-12-06 17:07:06,119  INFO QNetsimEngine:347 SIMULATION (QNetsimEngine) AT 10:00:00 : #links=0 #nodes=0
2018-12-06 17:07:06,119  INFO QSim:506 SIMULATION (NEW QSim) AT 10:00:00 : #Veh=1 lost=0 simT=10800.0s realT=0s; (s/r): Infinity
2018-12-06 17:07:06,120  INFO Gbl:54 used RAM: 59597216B = 58200kB = 56MB  free: 68853344B = 65MB  total: 128450560B = 122MB
2018-12-06 17:07:06,232  INFO QNetsimEngine:347 SIMULATION (QNetsimEngine) AT 11:00:00 : #links=0 #nodes=0
2018-12-06 17:07:06,232  INFO QSim:506 SIMULATION (NEW QSim) AT 11:00:00 : #Veh=1 lost=0 simT=14400.0s realT=0s; (s/r): Infinity
2018-12-06 17:07:06,233  INFO Gbl:54 used RAM: 61629320B = 60184kB = 58MB  free: 66821240B = 63MB  total: 128450560B = 122MB
2018-12-06 17:07:06,350  INFO QNetsimEngine:347 SIMULATION (QNetsimEngine) AT 12:00:00 : #links=0 #nodes=0
2018-12-06 17:07:06,350  INFO QSim:506 SIMULATION (NEW QSim) AT 12:00:00 : #Veh=1 lost=0 simT=18000.0s realT=0s; (s/r): Infinity
2018-12-06 17:07:06,350  INFO Gbl:54 used RAM: 63220984B = 61739kB = 60MB  free: 65229576B = 62MB  total: 128450560B = 122MB
2018-12-06 17:07:06,466  INFO QNetsimEngine:347 SIMULATION (QNetsimEngine) AT 13:00:00 : #links=0 #nodes=1
2018-12-06 17:07:06,466  INFO QSim:506 SIMULATION (NEW QSim) AT 13:00:00 : #Veh=1 lost=0 simT=21600.0s realT=0s; (s/r): Infinity
2018-12-06 17:07:06,466  INFO Gbl:54 used RAM: 66404392B = 64848kB = 63MB  free: 62046168B = 59MB  total: 128450560B = 122MB
2018-12-06 17:07:06,593  INFO QNetsimEngine:347 SIMULATION (QNetsimEngine) AT 14:00:00 : #links=0 #nodes=0
2018-12-06 17:07:06,593  INFO QSim:506 SIMULATION (NEW QSim) AT 14:00:00 : #Veh=1 lost=0 simT=25200.0s realT=0s; (s/r): Infinity
2018-12-06 17:07:06,594  INFO Gbl:54 used RAM: 67996056B = 66402kB = 64MB  free: 60454504B = 57MB  total: 128450560B = 122MB
2018-12-06 17:07:06,702  INFO QNetsimEngine:347 SIMULATION (QNetsimEngine) AT 15:00:00 : #links=0 #nodes=0
2018-12-06 17:07:06,702  INFO QSim:506 SIMULATION (NEW QSim) AT 15:00:00 : #Veh=1 lost=0 simT=28800.0s realT=0s; (s/r): Infinity
2018-12-06 17:07:06,702  INFO Gbl:54 used RAM: 71179376B = 69511kB = 67MB  free: 57271184B = 54MB  total: 128450560B = 122MB
2018-12-06 17:07:06,819  INFO QNetsimEngine:347 SIMULATION (QNetsimEngine) AT 16:00:00 : #links=0 #nodes=0
2018-12-06 17:07:06,820  INFO QSim:506 SIMULATION (NEW QSim) AT 16:00:00 : #Veh=1 lost=0 simT=32400.0s realT=1s; (s/r): 32400.0
2018-12-06 17:07:06,820  INFO Gbl:54 used RAM: 72771040B = 71065kB = 69MB  free: 55679520B = 53MB  total: 128450560B = 122MB
2018-12-06 17:07:06,976  INFO QNetsimEngine:347 SIMULATION (QNetsimEngine) AT 17:00:00 : #links=0 #nodes=0
2018-12-06 17:07:06,976  INFO QSim:506 SIMULATION (NEW QSim) AT 17:00:00 : #Veh=1 lost=0 simT=36000.0s realT=1s; (s/r): 36000.0
2018-12-06 17:07:06,976  INFO Gbl:54 used RAM: 19306456B = 18853kB = 18MB  free: 111241256B = 106MB  total: 130547712B = 124MB
2018-12-06 17:07:07,094  INFO QNetsimEngine:347 SIMULATION (QNetsimEngine) AT 18:00:00 : #links=0 #nodes=0
2018-12-06 17:07:07,094  INFO QSim:506 SIMULATION (NEW QSim) AT 18:00:00 : #Veh=1 lost=0 simT=39600.0s realT=1s; (s/r): 39600.0
2018-12-06 17:07:07,094  INFO Gbl:54 used RAM: 22333848B = 21810kB = 21MB  free: 108213864B = 103MB  total: 130547712B = 124MB
2018-12-06 17:07:07,225  INFO QNetsimEngine:347 SIMULATION (QNetsimEngine) AT 19:00:00 : #links=0 #nodes=1
2018-12-06 17:07:07,226  INFO QSim:506 SIMULATION (NEW QSim) AT 19:00:00 : #Veh=1 lost=0 simT=43200.0s realT=1s; (s/r): 43200.0
2018-12-06 17:07:07,226  INFO Gbl:54 used RAM: 24225488B = 23657kB = 23MB  free: 106322224B = 101MB  total: 130547712B = 124MB
2018-12-06 17:07:07,416  INFO QNetsimEngine:347 SIMULATION (QNetsimEngine) AT 20:00:00 : #links=0 #nodes=1
2018-12-06 17:07:07,417  INFO QSim:506 SIMULATION (NEW QSim) AT 20:00:00 : #Veh=1 lost=0 simT=46800.0s realT=1s; (s/r): 46800.0
2018-12-06 17:07:07,417  INFO Gbl:54 used RAM: 26117128B = 25505kB = 24MB  free: 104430584B = 99MB  total: 130547712B = 124MB
2018-12-06 17:07:07,428  INFO AbstractController$8:215 ### ITERATION 1 fires after mobsim event
2018-12-06 17:07:07,429  INFO ControlerListenerManagerImpl:248 calling notifyAfterMobsim on org.matsim.analysis.LegTimesControlerListener
2018-12-06 17:07:07,428  INFO Gbl:187 Thread performance: Thread=class org.matsim.core.events.SimStepParallelEventsManagerImpl$ProcessEventsRunnable0  cpu-time=0.234375sec
2018-12-06 17:07:07,432  INFO LegTimesControlerListener:50 [1] average trip (probably: leg) duration is: 175 seconds = 00:02:55
2018-12-06 17:07:07,432  INFO ControlerListenerManagerImpl:248 calling notifyAfterMobsim on org.matsim.core.scoring.EventsToActivities$1
2018-12-06 17:07:07,432  INFO ControlerListenerManagerImpl:251 [it.1] all ControlerAfterMobsimListeners called.
2018-12-06 17:07:07,432  INFO AbstractController$4:152 ### ITERATION 1 fires scoring event
2018-12-06 17:07:07,433  INFO ControlerListenerManagerImpl:183 calling notifyScoring on org.matsim.core.scoring.PlansScoringImpl
2018-12-06 17:07:07,433  INFO NewScoreAssignerImpl:36 it: 1 msaStart: null
2018-12-06 17:07:07,433  INFO ControlerListenerManagerImpl:194 [it.1] all ControlerScoringListeners called.
2018-12-06 17:07:07,433  INFO AbstractController$5:160 ### ITERATION 1 fires iteration end event
2018-12-06 17:07:07,433  INFO ControlerListenerManagerImpl:160 calling notifyIterationEnds on org.matsim.core.controler.corelisteners.EventsHandlingImpl
2018-12-06 17:07:07,433  INFO ControlerListenerManagerImpl:160 calling notifyIterationEnds on org.matsim.core.scoring.PlansScoringImpl
2018-12-06 17:07:07,433  INFO ControlerListenerManagerImpl:167 calling notifyIterationEnds on org.matsim.counts.CountsControlerListener
2018-12-06 17:07:07,434  INFO ControlerListenerManagerImpl:167 calling notifyIterationEnds on org.matsim.analysis.ModeStatsControlerListener
2018-12-06 17:07:07,434  INFO ModeStatsControlerListener:155 -- mode share of mode bike = 0.0
2018-12-06 17:07:07,434  INFO ModeStatsControlerListener:155 -- mode share of mode car = 1.0
2018-12-06 17:07:07,434  INFO ModeStatsControlerListener:155 -- mode share of mode other = 0.0
2018-12-06 17:07:07,434  INFO ModeStatsControlerListener:155 -- mode share of mode pt = 0.0
2018-12-06 17:07:07,434  INFO ModeStatsControlerListener:155 -- mode share of mode ride = 0.0
2018-12-06 17:07:07,435  INFO ModeStatsControlerListener:155 -- mode share of mode walk = 0.0
2018-12-06 17:07:07,608  INFO ControlerListenerManagerImpl:167 calling notifyIterationEnds on org.matsim.analysis.ScoreStatsControlerListener
2018-12-06 17:07:07,609  INFO ScoreStatsControlerListener:191 -- avg. score of the executed plan of each agent: 131.53538511005704
2018-12-06 17:07:07,609  INFO ScoreStatsControlerListener:192 -- avg. score of the worst plan of each agent: 131.53538511005704
2018-12-06 17:07:07,609  INFO ScoreStatsControlerListener:193 -- avg. of the avg. plan score per agent: 131.53538511005704
2018-12-06 17:07:07,609  INFO ScoreStatsControlerListener:194 -- avg. score of the best plan of each agent: 131.53538511005704
2018-12-06 17:07:07,749  INFO ControlerListenerManagerImpl:167 calling notifyIterationEnds on org.matsim.analysis.TravelDistanceStatsControlerListener
2018-12-06 17:07:07,750  INFO TravelDistanceStats:128 [TravelDistanceStats] using 2 thread(s).
2018-12-06 17:07:07,752  INFO TravelDistanceStats:141 [TravelDistanceStats] all threads finished.
2018-12-06 17:07:07,752  INFO TravelDistanceStats:161 -- average of the average leg distance per plan (executed plans only): 4500.0
2018-12-06 17:07:07,752  INFO TravelDistanceStats:162 (TravelDistanceStats takes an average over all legs where the simulation reports travelled distances. These are car legs, pt legs,
2018-12-06 17:07:07,752  INFO TravelDistanceStats:163 (and teleported legs whose route contains a distance.)
2018-12-06 17:07:07,887  INFO ControlerListenerManagerImpl:167 calling notifyIterationEnds on org.matsim.analysis.LegHistogramListener
2018-12-06 17:07:07,893  INFO LegHistogramListener:72 number of legs:	4	100%
2018-12-06 17:07:07,893  INFO LegHistogramListener:79 number of car legs:	4	100.0%
2018-12-06 17:07:08,387  INFO ControlerListenerManagerImpl:167 calling notifyIterationEnds on org.matsim.analysis.LinkStatsControlerListener
2018-12-06 17:07:08,388  INFO ControlerListenerManagerImpl:171 [it.1] all ControlerIterationEndsListeners called.
2018-12-06 17:07:08,620  INFO AbstractController:170 ### ITERATION 1 ENDS
2018-12-06 17:07:08,620  INFO AbstractController:171 ###################################################
2018-12-06 17:07:08,621  INFO MatsimRuntimeModifications:58 S H U T D O W N   ---   start shutdown.
2018-12-06 17:07:08,621  INFO ControlerListenerManagerImpl:121 calling notifyShutdown on org.matsim.core.controler.corelisteners.EventsHandlingImpl
2018-12-06 17:07:08,621  INFO ControlerListenerManagerImpl:126 calling notifyShutdown on org.matsim.analysis.ModeStatsControlerListener
2018-12-06 17:07:08,623  INFO ControlerListenerManagerImpl:126 calling notifyShutdown on org.matsim.analysis.ScoreStatsControlerListener
2018-12-06 17:07:08,625  INFO ControlerListenerManagerImpl:126 calling notifyShutdown on org.matsim.analysis.TravelDistanceStatsControlerListener
2018-12-06 17:07:08,628  INFO ControlerListenerManagerImpl:129 all ControlerShutdownListeners called.
2018-12-06 17:07:08,628  INFO MatsimRuntimeModifications:81 S H U T D O W N   ---   shutdown completed.
2018-12-06 17:07:08,628  INFO OutputDirectoryLogging:146 closing the logfile, i.e. messages sent to the logger after this message are not written to the logfile.
